####################################################################### 
# 
# This file contains crystal structure data downloaded from the 
# Cambridge Structural Database (CSD) hosted by the Cambridge 
# Crystallographic Data Centre (CCDC).
# 
# Full information about CCDC data access policies and citation 
# guidelines are available at http://www.ccdc.cam.ac.uk/access/V1 
# 
# Audit and citation data items may have been added by the CCDC. 
# Please retain this information to preserve the provenance of 
# this file and to allow appropriate attribution of the data. 
# 
#######################################################################
@<TRIPOS>MOLECULE
UNEJEE
   269   367     4     0     0
SMALL
NO_CHARGES
****
Generated from the CSD

@<TRIPOS>ATOM
     1 Zr1     11.6361   0.0000   0.0000   Zr        1 RES1   0.0000
     2 Zr2     14.0996   1.7636   1.7636   Zr        1 RES1   0.0000
     3 O1      10.5267   1.3631   1.3631   O.co2     1 RES1   0.0000
     4 O2      12.0844   2.4688   2.4688   O.co2     1 RES1   0.0000
     5 O3      12.9208   0.0000   1.7483   O.3       1 RES1   0.0000
     6 O4      14.0996   1.5481   3.9733   O.3       1 RES1   0.0000
     7 C1      10.8623   2.2221   2.2221   C.2       1 RES1   0.0000
     8 C2       9.9007   2.8425   2.8425   C.2       1 RES1   0.0000
     9 C3       8.5415   2.6676   2.6676   C.2       1 RES1   0.0000
    10 H3       8.2708   2.0388   2.0388   H         1 RES1   0.0000
    11 C4       7.5292   3.3613   3.3613   C.2       1 RES1   0.0000
    12 H4       6.6409   3.1696   3.1696   H         1 RES1   0.0000
    13 C5       7.8112   4.2919   4.2919   C.2       1 RES1   0.0000
    14 C6       9.1562   4.5795   4.5795   C.2       1 RES1   0.0000
    15 H6       9.3931   5.2140   5.2140   H         1 RES1   0.0000
    16 C7      10.1319   3.8576   3.8576   C.2       1 RES1   0.0000
    17 H7      11.0202   4.0550   4.0550   H         1 RES1   0.0000
    18 C8       6.7001   4.9771   4.9771   C.2       1 RES1   0.0000
    19 C9       6.0741   6.0741   4.3680   C.2       1 RES1   0.0000
    20 C10      6.7339   6.7339   3.1555   C.3       1 RES1   0.0000
    21 O1       1.3631  10.5267   1.3631   O.co2     1 RES1   0.0000
    22 O2       2.4688  12.0844   2.4688   O.co2     1 RES1   0.0000
    23 C1       2.2221  10.8623   2.2221   C.2       1 RES1   0.0000
    24 C2       2.8425   9.9007   2.8425   C.2       1 RES1   0.0000
    25 C3       2.6676   8.5415   2.6676   C.2       1 RES1   0.0000
    26 H3       2.0388   8.2708   2.0388   H         1 RES1   0.0000
    27 C4       3.3613   7.5292   3.3613   C.2       1 RES1   0.0000
    28 H4       3.1696   6.6409   3.1696   H         1 RES1   0.0000
    29 C5       4.2919   7.8112   4.2919   C.2       1 RES1   0.0000
    30 C6       4.5795   9.1562   4.5795   C.2       1 RES1   0.0000
    31 H6       5.2140   9.3931   5.2140   H         1 RES1   0.0000
    32 C7       3.8576  10.1319   3.8576   C.2       1 RES1   0.0000
    33 H7       4.0550  11.0202   4.0550   H         1 RES1   0.0000
    34 C8       4.9771   6.7001   4.9771   C.2       1 RES1   0.0000
    35 C9       4.3680   6.0741   6.0741   C.2       1 RES1   0.0000
    36 C10      3.1555   6.7339   6.7339   C.3       1 RES1   0.0000
    37 O1       1.3631   1.3631  10.5267   O.co2     1 RES1   0.0000
    38 O2       2.4688   2.4688  12.0844   O.co2     1 RES1   0.0000
    39 C1       2.2221   2.2221  10.8623   C.2       1 RES1   0.0000
    40 C2       2.8425   2.8425   9.9007   C.2       1 RES1   0.0000
    41 C3       2.6676   2.6676   8.5415   C.2       1 RES1   0.0000
    42 H3       2.0388   2.0388   8.2708   H         1 RES1   0.0000
    43 C4       3.3613   3.3613   7.5292   C.2       1 RES1   0.0000
    44 H4       3.1696   3.1696   6.6409   H         1 RES1   0.0000
    45 C5       4.2919   4.2919   7.8112   C.2       1 RES1   0.0000
    46 C6       4.5795   4.5795   9.1562   C.2       1 RES1   0.0000
    47 H6       5.2140   5.2140   9.3931   H         1 RES1   0.0000
    48 C7       3.8576   3.8576  10.1319   C.2       1 RES1   0.0000
    49 H7       4.0550   4.0550  11.0202   H         1 RES1   0.0000
    50 C8       4.9771   4.9771   6.7001   C.2       1 RES1   0.0000
    51 C9       6.0741   4.3680   6.0741   C.2       1 RES1   0.0000
    52 C10      6.7339   3.1555   6.7339   C.3       1 RES1   0.0000
    53 Zr1      0.0000  11.6361   0.0000   Zr        1 RES1   0.0000
    54 O1      -1.3631  10.5267   1.3631   O.co2     1 RES1   0.0000
    55 O2      -2.4688  12.0844   2.4688   O.co2     1 RES1   0.0000
    56 O3       0.0000  12.9208   1.7483   O.3       1 RES1   0.0000
    57 C1      -2.2221  10.8623   2.2221   C.2       1 RES1   0.0000
    58 C2      -2.8425   9.9007   2.8425   C.2       1 RES1   0.0000
    59 C3      -2.6676   8.5415   2.6676   C.2       1 RES1   0.0000
    60 H3      -2.0388   8.2708   2.0388   H         1 RES1   0.0000
    61 C4      -3.3613   7.5292   3.3613   C.2       1 RES1   0.0000
    62 H4      -3.1696   6.6409   3.1696   H         1 RES1   0.0000
    63 C5      -4.2919   7.8112   4.2919   C.2       1 RES1   0.0000
    64 C6      -4.5795   9.1562   4.5795   C.2       1 RES1   0.0000
    65 H6      -5.2140   9.3931   5.2140   H         1 RES1   0.0000
    66 C7      -3.8576  10.1319   3.8576   C.2       1 RES1   0.0000
    67 H7      -4.0550  11.0202   4.0550   H         1 RES1   0.0000
    68 C8      -4.9771   6.7001   4.9771   C.2       1 RES1   0.0000
    69 C9      -6.0741   6.0741   4.3680   C.2       1 RES1   0.0000
    70 C10     -6.7339   6.7339   3.1555   C.3       1 RES1   0.0000
    71 O1     -10.5267   1.3631   1.3631   O.co2     1 RES1   0.0000
    72 O2     -12.0844   2.4688   2.4688   O.co2     1 RES1   0.0000
    73 C1     -10.8623   2.2221   2.2221   C.2       1 RES1   0.0000
    74 C2      -9.9007   2.8425   2.8425   C.2       1 RES1   0.0000
    75 C3      -8.5415   2.6676   2.6676   C.2       1 RES1   0.0000
    76 H3      -8.2708   2.0388   2.0388   H         1 RES1   0.0000
    77 C4      -7.5292   3.3613   3.3613   C.2       1 RES1   0.0000
    78 H4      -6.6409   3.1696   3.1696   H         1 RES1   0.0000
    79 C5      -7.8112   4.2919   4.2919   C.2       1 RES1   0.0000
    80 C6      -9.1562   4.5795   4.5795   C.2       1 RES1   0.0000
    81 H6      -9.3931   5.2140   5.2140   H         1 RES1   0.0000
    82 C7     -10.1319   3.8576   3.8576   C.2       1 RES1   0.0000
    83 H7     -11.0202   4.0550   4.0550   H         1 RES1   0.0000
    84 C8      -6.7001   4.9771   4.9771   C.2       1 RES1   0.0000
    85 C9      -6.0741   4.3680   6.0741   C.2       1 RES1   0.0000
    86 C10     -6.7339   3.1555   6.7339   C.3       1 RES1   0.0000
    87 O1      -1.3631   1.3631  10.5267   O.co2     1 RES1   0.0000
    88 O2      -2.4688   2.4688  12.0844   O.co2     1 RES1   0.0000
    89 C1      -2.2221   2.2221  10.8623   C.2       1 RES1   0.0000
    90 C2      -2.8425   2.8425   9.9007   C.2       1 RES1   0.0000
    91 C3      -2.6676   2.6676   8.5415   C.2       1 RES1   0.0000
    92 H3      -2.0388   2.0388   8.2708   H         1 RES1   0.0000
    93 C4      -3.3613   3.3613   7.5292   C.2       1 RES1   0.0000
    94 H4      -3.1696   3.1696   6.6409   H         1 RES1   0.0000
    95 C5      -4.2919   4.2919   7.8112   C.2       1 RES1   0.0000
    96 C6      -4.5795   4.5795   9.1562   C.2       1 RES1   0.0000
    97 H6      -5.2140   5.2140   9.3931   H         1 RES1   0.0000
    98 C7      -3.8576   3.8576  10.1319   C.2       1 RES1   0.0000
    99 H7      -4.0550   4.0550  11.0202   H         1 RES1   0.0000
   100 C8      -4.9771   4.9771   6.7001   C.2       1 RES1   0.0000
   101 C9      -4.3680   6.0741   6.0741   C.2       1 RES1   0.0000
   102 C10     -3.1555   6.7339   6.7339   C.3       1 RES1   0.0000
   103 Zr1    -11.6361   0.0000   0.0000   Zr        1 RES1   0.0000
   104 O1     -10.5267  -1.3631   1.3631   O.co2     1 RES1   0.0000
   105 O2     -12.0844  -2.4688   2.4688   O.co2     1 RES1   0.0000
   106 O3     -12.9208   0.0000   1.7483   O.3       1 RES1   0.0000
   107 C1     -10.8623  -2.2221   2.2221   C.2       1 RES1   0.0000
   108 C2      -9.9007  -2.8425   2.8425   C.2       1 RES1   0.0000
   109 C3      -8.5415  -2.6676   2.6676   C.2       1 RES1   0.0000
   110 H3      -8.2708  -2.0388   2.0388   H         1 RES1   0.0000
   111 C4      -7.5292  -3.3613   3.3613   C.2       1 RES1   0.0000
   112 H4      -6.6409  -3.1696   3.1696   H         1 RES1   0.0000
   113 C5      -7.8112  -4.2919   4.2919   C.2       1 RES1   0.0000
   114 C6      -9.1562  -4.5795   4.5795   C.2       1 RES1   0.0000
   115 H6      -9.3931  -5.2140   5.2140   H         1 RES1   0.0000
   116 C7     -10.1319  -3.8576   3.8576   C.2       1 RES1   0.0000
   117 H7     -11.0202  -4.0550   4.0550   H         1 RES1   0.0000
   118 C8      -6.7001  -4.9771   4.9771   C.2       1 RES1   0.0000
   119 C9      -6.0741  -6.0741   4.3680   C.2       1 RES1   0.0000
   120 C10     -6.7339  -6.7339   3.1555   C.3       1 RES1   0.0000
   121 O1      -1.3631 -10.5267   1.3631   O.co2     1 RES1   0.0000
   122 O2      -2.4688 -12.0844   2.4688   O.co2     1 RES1   0.0000
   123 C1      -2.2221 -10.8623   2.2221   C.2       1 RES1   0.0000
   124 C2      -2.8425  -9.9007   2.8425   C.2       1 RES1   0.0000
   125 C3      -2.6676  -8.5415   2.6676   C.2       1 RES1   0.0000
   126 H3      -2.0388  -8.2708   2.0388   H         1 RES1   0.0000
   127 C4      -3.3613  -7.5292   3.3613   C.2       1 RES1   0.0000
   128 H4      -3.1696  -6.6409   3.1696   H         1 RES1   0.0000
   129 C5      -4.2919  -7.8112   4.2919   C.2       1 RES1   0.0000
   130 C6      -4.5795  -9.1562   4.5795   C.2       1 RES1   0.0000
   131 H6      -5.2140  -9.3931   5.2140   H         1 RES1   0.0000
   132 C7      -3.8576 -10.1319   3.8576   C.2       1 RES1   0.0000
   133 H7      -4.0550 -11.0202   4.0550   H         1 RES1   0.0000
   134 C8      -4.9771  -6.7001   4.9771   C.2       1 RES1   0.0000
   135 C9      -4.3680  -6.0741   6.0741   C.2       1 RES1   0.0000
   136 C10     -3.1555  -6.7339   6.7339   C.3       1 RES1   0.0000
   137 O1      -1.3631  -1.3631  10.5267   O.co2     1 RES1   0.0000
   138 O2      -2.4688  -2.4688  12.0844   O.co2     1 RES1   0.0000
   139 C1      -2.2221  -2.2221  10.8623   C.2       1 RES1   0.0000
   140 C2      -2.8425  -2.8425   9.9007   C.2       1 RES1   0.0000
   141 C3      -2.6676  -2.6676   8.5415   C.2       1 RES1   0.0000
   142 H3      -2.0388  -2.0388   8.2708   H         1 RES1   0.0000
   143 C4      -3.3613  -3.3613   7.5292   C.2       1 RES1   0.0000
   144 H4      -3.1696  -3.1696   6.6409   H         1 RES1   0.0000
   145 C5      -4.2919  -4.2919   7.8112   C.2       1 RES1   0.0000
   146 C6      -4.5795  -4.5795   9.1562   C.2       1 RES1   0.0000
   147 H6      -5.2140  -5.2140   9.3931   H         1 RES1   0.0000
   148 C7      -3.8576  -3.8576  10.1319   C.2       1 RES1   0.0000
   149 H7      -4.0550  -4.0550  11.0202   H         1 RES1   0.0000
   150 C8      -4.9771  -4.9771   6.7001   C.2       1 RES1   0.0000
   151 C9      -6.0741  -4.3680   6.0741   C.2       1 RES1   0.0000
   152 C10     -6.7339  -3.1555   6.7339   C.3       1 RES1   0.0000
   153 O1       1.3631 -10.5267   1.3631   O.co2     1 RES1   0.0000
   154 O2       2.4688 -12.0844   2.4688   O.co2     1 RES1   0.0000
   155 C1       2.2221 -10.8623   2.2221   C.2       1 RES1   0.0000
   156 C2       2.8425  -9.9007   2.8425   C.2       1 RES1   0.0000
   157 C3       2.6676  -8.5415   2.6676   C.2       1 RES1   0.0000
   158 H3       2.0388  -8.2708   2.0388   H         1 RES1   0.0000
   159 C4       3.3613  -7.5292   3.3613   C.2       1 RES1   0.0000
   160 H4       3.1696  -6.6409   3.1696   H         1 RES1   0.0000
   161 C5       4.2919  -7.8112   4.2919   C.2       1 RES1   0.0000
   162 C6       4.5795  -9.1562   4.5795   C.2       1 RES1   0.0000
   163 H6       5.2140  -9.3931   5.2140   H         1 RES1   0.0000
   164 C7       3.8576 -10.1319   3.8576   C.2       1 RES1   0.0000
   165 H7       4.0550 -11.0202   4.0550   H         1 RES1   0.0000
   166 C8       4.9771  -6.7001   4.9771   C.2       1 RES1   0.0000
   167 C9       6.0741  -6.0741   4.3680   C.2       1 RES1   0.0000
   168 C10      6.7339  -6.7339   3.1555   C.3       1 RES1   0.0000
   169 O1      10.5267  -1.3631   1.3631   O.co2     1 RES1   0.0000
   170 O2      12.0844  -2.4688   2.4688   O.co2     1 RES1   0.0000
   171 C1      10.8623  -2.2221   2.2221   C.2       1 RES1   0.0000
   172 C2       9.9007  -2.8425   2.8425   C.2       1 RES1   0.0000
   173 C3       8.5415  -2.6676   2.6676   C.2       1 RES1   0.0000
   174 H3       8.2708  -2.0388   2.0388   H         1 RES1   0.0000
   175 C4       7.5292  -3.3613   3.3613   C.2       1 RES1   0.0000
   176 H4       6.6409  -3.1696   3.1696   H         1 RES1   0.0000
   177 C5       7.8112  -4.2919   4.2919   C.2       1 RES1   0.0000
   178 C6       9.1562  -4.5795   4.5795   C.2       1 RES1   0.0000
   179 H6       9.3931  -5.2140   5.2140   H         1 RES1   0.0000
   180 C7      10.1319  -3.8576   3.8576   C.2       1 RES1   0.0000
   181 H7      11.0202  -4.0550   4.0550   H         1 RES1   0.0000
   182 C8       6.7001  -4.9771   4.9771   C.2       1 RES1   0.0000
   183 C9       6.0741  -4.3680   6.0741   C.2       1 RES1   0.0000
   184 C10      6.7339  -3.1555   6.7339   C.3       1 RES1   0.0000
   185 O1       1.3631  -1.3631  10.5267   O.co2     1 RES1   0.0000
   186 O2       2.4688  -2.4688  12.0844   O.co2     1 RES1   0.0000
   187 C1       2.2221  -2.2221  10.8623   C.2       1 RES1   0.0000
   188 C2       2.8425  -2.8425   9.9007   C.2       1 RES1   0.0000
   189 C3       2.6676  -2.6676   8.5415   C.2       1 RES1   0.0000
   190 H3       2.0388  -2.0388   8.2708   H         1 RES1   0.0000
   191 C4       3.3613  -3.3613   7.5292   C.2       1 RES1   0.0000
   192 H4       3.1696  -3.1696   6.6409   H         1 RES1   0.0000
   193 C5       4.2919  -4.2919   7.8112   C.2       1 RES1   0.0000
   194 C6       4.5795  -4.5795   9.1562   C.2       1 RES1   0.0000
   195 H6       5.2140  -5.2140   9.3931   H         1 RES1   0.0000
   196 C7       3.8576  -3.8576  10.1319   C.2       1 RES1   0.0000
   197 H7       4.0550  -4.0550  11.0202   H         1 RES1   0.0000
   198 C8       4.9771  -4.9771   6.7001   C.2       1 RES1   0.0000
   199 C9       4.3680  -6.0741   6.0741   C.2       1 RES1   0.0000
   200 C10      3.1555  -6.7339   6.7339   C.3       1 RES1   0.0000
   201 Zr2     14.0996  -1.7636   1.7636   Zr        1 RES1   0.0000
   202 O3      12.9208  -1.7483   0.0000   O.3       1 RES1   0.0000
   203 O4      14.0996  -3.9733   1.5481   O.3       1 RES1   0.0000
   204 Zr2     14.0996  -1.7636  -1.7636   Zr        1 RES1   0.0000
   205 O3      12.9208   0.0000  -1.7483   O.3       1 RES1   0.0000
   206 O4      14.0996  -1.5481  -3.9733   O.3       1 RES1   0.0000
   207 Zr2     14.0996   1.7636  -1.7636   Zr        1 RES1   0.0000
   208 O3      12.9208   1.7483   0.0000   O.3       1 RES1   0.0000
   209 O4      14.0996   3.9733  -1.5481   O.3       1 RES1   0.0000
   210 O3     -12.9208   0.0000  -1.7483   O.3       1 RES1   0.0000
   211 Zr2      1.7636  14.0996   1.7636   Zr        1 RES1   0.0000
   212 O3       1.7483  12.9208   0.0000   O.3       1 RES1   0.0000
   213 O4       3.9733  14.0996   1.5481   O.3       1 RES1   0.0000
   214 Zr2      1.7636   1.7636  14.0996   Zr        1 RES1   0.0000
   215 O3       0.0000   1.7483  12.9208   O.3       1 RES1   0.0000
   216 O4       1.5481   3.9733  14.0996   O.3       1 RES1   0.0000
   217 O3      15.2783   0.0000   1.7483   O.3       1 RES1   0.0000
   218 O3      15.2783   1.7483   0.0000   O.3       1 RES1   0.0000
   219 O3      -1.7483  12.9208   0.0000   O.3       1 RES1   0.0000
   220 O4      14.0996   3.9733   1.5481   O.3       1 RES1   0.0000
   221 O4      14.0996  -1.5481   3.9733   O.3       1 RES1   0.0000
   222 O4      14.0996  -3.9733  -1.5481   O.3       1 RES1   0.0000
   223 O4      14.0996   1.5481  -3.9733   O.3       1 RES1   0.0000
   224 O4       1.5481  14.0996   3.9733   O.3       1 RES1   0.0000
   225 O4       3.9733   1.5481  14.0996   O.3       1 RES1   0.0000
   226 Zr1     16.5630   0.0000   0.0000   Zr        1 RES1   0.0000
   227 Zr1      0.0000 -11.6361   0.0000   Zr        1 RES1   0.0000
   228 Zr1      0.0000  16.5630   0.0000   Zr        1 RES1   0.0000
   229 Zr1      0.0000   0.0000  16.5630   Zr        1 RES1   0.0000
   230 Zr1      0.0000   0.0000  11.6361   Zr        1 RES1   0.0000
   231 Zr2    -14.0996   1.7636   1.7636   Zr        1 RES1   0.0000
   232 Zr2     -1.7636 -14.0996   1.7636   Zr        1 RES1   0.0000
   233 Zr2     -1.7636  14.0996   1.7636   Zr        1 RES1   0.0000
   234 Zr2    -14.0996  -1.7636   1.7636   Zr        1 RES1   0.0000
   235 Zr2      1.7636 -14.0996   1.7636   Zr        1 RES1   0.0000
   236 Zr2    -14.0996  -1.7636  -1.7636   Zr        1 RES1   0.0000
   237 Zr2    -14.0996   1.7636  -1.7636   Zr        1 RES1   0.0000
   238 Zr2     -1.7636   1.7636  14.0996   Zr        1 RES1   0.0000
   239 Zr2     -1.7636  -1.7636  14.0996   Zr        1 RES1   0.0000
   240 Zr2      1.7636  14.0996  -1.7636   Zr        1 RES1   0.0000
   241 Zr2     -1.7636  14.0996  -1.7636   Zr        1 RES1   0.0000
   242 Zr2      1.7636  -1.7636  14.0996   Zr        1 RES1   0.0000
   243 O1      10.5267  -1.3631  -1.3631   O.3       1 RES1   0.0000
   244 O1      10.5267   1.3631  -1.3631   O.3       1 RES1   0.0000
   245 O1     -10.5267   1.3631  -1.3631   O.3       1 RES1   0.0000
   246 O1      -1.3631  10.5267  -1.3631   O.3       1 RES1   0.0000
   247 O1       1.3631  10.5267  -1.3631   O.3       1 RES1   0.0000
   248 O1     -10.5267  -1.3631  -1.3631   O.3       1 RES1   0.0000
   249 O2      16.1147  -2.4688   2.4688   O.3       1 RES1   0.0000
   250 O2       2.4688  16.1147   2.4688   O.3       1 RES1   0.0000
   251 O2      12.0844  -2.4688  -2.4688   O.3       1 RES1   0.0000
   252 O2      12.0844   2.4688  -2.4688   O.3       1 RES1   0.0000
   253 O2       2.4688   2.4688  16.1147   O.3       1 RES1   0.0000
   254 O2      16.1147   2.4688  -2.4688   O.3       1 RES1   0.0000
   255 O2      16.1147   2.4688   2.4688   O.3       1 RES1   0.0000
   256 O2      16.1147  -2.4688  -2.4688   O.3       1 RES1   0.0000
   257 O3       0.0000  15.2783   1.7483   O.3       1 RES1   0.0000
   258 O3       1.7483   0.0000  15.2783   O.3       1 RES1   0.0000
   259 O3      15.2783   0.0000  -1.7483   O.3       1 RES1   0.0000
   260 O3       1.7483  15.2783   0.0000   O.3       1 RES1   0.0000
   261 O3       0.0000   1.7483  15.2783   O.3       1 RES1   0.0000
   262 O3       0.0000  12.9208  -1.7483   O.3       1 RES1   0.0000
   263 O3     -12.9208   1.7483   0.0000   O.3       1 RES1   0.0000
   264 O3     -12.9208  -1.7483   0.0000   O.3       1 RES1   0.0000
   265 O3      15.2783  -1.7483   0.0000   O.3       1 RES1   0.0000
   266 O3       1.7483   0.0000  12.9208   O.3       1 RES1   0.0000
   267 H10A?    7.5404   6.2630   2.9355   H         2 RES2   0.0000
   268 H10B?    6.9398   7.6476   3.3585   H         3 RES3   0.0000
   269 H10C?    6.1305   6.7001   2.4082   H         4 RES4   0.0000
@<TRIPOS>BOND
     1     1     2    1
     2     1     3    1
     3     1     5    1
     4     1   169    1
     5     1   201    1
     6     1   202    1
     7     1   204    1
     8     1   205    1
     9     1   207    1
    10     1   208    1
    11     1   243    1
    12     1   244    1
    13     2     4    1
    14     2     5    1
    15     2     6    1
    16     2   201    1
    17     2   207    1
    18     2   208    1
    19     2   217    1
    20     2   218    1
    21     2   220    1
    22     2   226    1
    23     2   255    1
    24     3     7   un
    25     4     7   un
    26     5   201    1
    27     7     8    1
    28     8     9    2
    29     8    16    1
    30     9    10    1
    31     9    11    1
    32    11    12    1
    33    11    13    2
    34    13    14    1
    35    13    18    1
    36    14    15    1
    37    14    16    2
    38    16    17    1
    39    18    19    2
    40    18    51    1
    41    19    20    1
    42    19    34    1
    43    21    23   un
    44    21    53    1
    45    22    23   un
    46    22   211    1
    47    23    24    1
    48    24    25    2
    49    24    32    1
    50    25    26    1
    51    25    27    1
    52    27    28    1
    53    27    29    2
    54    29    30    1
    55    29    34    1
    56    30    31    1
    57    30    32    2
    58    32    33    1
    59    34    35    2
    60    35    36    1
    61    35    50    1
    62    37    39   un
    63    37   230    1
    64    38    39   un
    65    38   214    1
    66    39    40    1
    67    40    41    2
    68    40    48    1
    69    41    42    1
    70    41    43    1
    71    43    44    1
    72    43    45    2
    73    45    46    1
    74    45    50    1
    75    46    47    1
    76    46    48    2
    77    48    49    1
    78    50    51    2
    79    51    52    1
    80    53    54    1
    81    53    56    1
    82    53   211    1
    83    53   212    1
    84    53   219    1
    85    53   233    1
    86    53   240    1
    87    53   241    1
    88    53   246    1
    89    53   247    1
    90    53   262    1
    91    54    57   un
    92    55    57   un
    93    55   233    1
    94    56   211    1
    95    56   233    1
    96    57    58    1
    97    58    59    2
    98    58    66    1
    99    59    60    1
   100    59    61    1
   101    61    62    1
   102    61    63    2
   103    63    64    1
   104    63    68    1
   105    64    65    1
   106    64    66    2
   107    66    67    1
   108    68    69    2
   109    68   101    1
   110    69    70    1
   111    69    84    1
   112    71    73   un
   113    71   103    1
   114    72    73   un
   115    72   231    1
   116    73    74    1
   117    74    75    2
   118    74    82    1
   119    75    76    1
   120    75    77    1
   121    77    78    1
   122    77    79    2
   123    79    80    1
   124    79    84    1
   125    80    81    1
   126    80    82    2
   127    82    83    1
   128    84    85    2
   129    85    86    1
   130    85   100    1
   131    87    89   un
   132    87   230    1
   133    88    89   un
   134    88   238    1
   135    89    90    1
   136    90    91    2
   137    90    98    1
   138    91    92    1
   139    91    93    1
   140    93    94    1
   141    93    95    2
   142    95    96    1
   143    95   100    1
   144    96    97    1
   145    96    98    2
   146    98    99    1
   147   100   101    2
   148   101   102    1
   149   103   104    1
   150   103   106    1
   151   103   210    1
   152   103   231    1
   153   103   234    1
   154   103   236    1
   155   103   237    1
   156   103   245    1
   157   103   248    1
   158   103   263    1
   159   103   264    1
   160   104   107   un
   161   105   107   un
   162   105   234    1
   163   106   231    1
   164   106   234    1
   165   107   108    1
   166   108   109    2
   167   108   116    1
   168   109   110    1
   169   109   111    1
   170   111   112    1
   171   111   113    2
   172   113   114    1
   173   113   118    1
   174   114   115    1
   175   114   116    2
   176   116   117    1
   177   118   119    2
   178   118   151    1
   179   119   120    1
   180   119   134    1
   181   121   123   un
   182   121   227    1
   183   122   123   un
   184   122   232    1
   185   123   124    1
   186   124   125    2
   187   124   132    1
   188   125   126    1
   189   125   127    1
   190   127   128    1
   191   127   129    2
   192   129   130    1
   193   129   134    1
   194   130   131    1
   195   130   132    2
   196   132   133    1
   197   134   135    2
   198   135   136    1
   199   135   150    1
   200   137   139   un
   201   137   230    1
   202   138   139   un
   203   138   239    1
   204   139   140    1
   205   140   141    2
   206   140   148    1
   207   141   142    1
   208   141   143    1
   209   143   144    1
   210   143   145    2
   211   145   146    1
   212   145   150    1
   213   146   147    1
   214   146   148    2
   215   148   149    1
   216   150   151    2
   217   151   152    1
   218   153   155   un
   219   153   227    1
   220   154   155   un
   221   154   235    1
   222   155   156    1
   223   156   157    2
   224   156   164    1
   225   157   158    1
   226   157   159    1
   227   159   160    1
   228   159   161    2
   229   161   162    1
   230   161   166    1
   231   162   163    1
   232   162   164    2
   233   164   165    1
   234   166   167    2
   235   166   199    1
   236   167   168    1
   237   167   182    1
   238   169   171   un
   239   170   171   un
   240   170   201    1
   241   171   172    1
   242   172   173    2
   243   172   180    1
   244   173   174    1
   245   173   175    1
   246   175   176    1
   247   175   177    2
   248   177   178    1
   249   177   182    1
   250   178   179    1
   251   178   180    2
   252   180   181    1
   253   182   183    2
   254   183   184    1
   255   183   198    1
   256   185   187   un
   257   185   230    1
   258   186   187   un
   259   186   242    1
   260   187   188    1
   261   188   189    2
   262   188   196    1
   263   189   190    1
   264   189   191    1
   265   191   192    1
   266   191   193    2
   267   193   194    1
   268   193   198    1
   269   194   195    1
   270   194   196    2
   271   196   197    1
   272   198   199    2
   273   199   200    1
   274   201   202    1
   275   201   203    1
   276   201   204    1
   277   201   217    1
   278   201   221    1
   279   201   226    1
   280   201   249    1
   281   201   265    1
   282   202   204    1
   283   204   205    1
   284   204   206    1
   285   204   207    1
   286   204   222    1
   287   204   226    1
   288   204   251    1
   289   204   256    1
   290   204   259    1
   291   204   265    1
   292   205   207    1
   293   207   208    1
   294   207   209    1
   295   207   218    1
   296   207   223    1
   297   207   226    1
   298   207   252    1
   299   207   254    1
   300   207   259    1
   301   210   236    1
   302   210   237    1
   303   211   212    1
   304   211   213    1
   305   211   224    1
   306   211   228    1
   307   211   233    1
   308   211   240    1
   309   211   250    1
   310   211   257    1
   311   211   260    1
   312   212   240    1
   313   214   215    1
   314   214   216    1
   315   214   225    1
   316   214   229    1
   317   214   230    1
   318   214   238    1
   319   214   242    1
   320   214   253    1
   321   214   258    1
   322   214   261    1
   323   214   266    1
   324   215   230    1
   325   215   238    1
   326   217   226    1
   327   218   226    1
   328   219   233    1
   329   219   241    1
   330   226   259    1
   331   226   265    1
   332   227   232    1
   333   227   235    1
   334   228   233    1
   335   228   240    1
   336   228   241    1
   337   228   257    1
   338   228   260    1
   339   229   238    1
   340   229   239    1
   341   229   242    1
   342   229   258    1
   343   229   261    1
   344   230   238    1
   345   230   239    1
   346   230   242    1
   347   230   266    1
   348   231   234    1
   349   231   237    1
   350   231   263    1
   351   232   235    1
   352   233   241    1
   353   233   257    1
   354   234   236    1
   355   234   264    1
   356   236   237    1
   357   236   264    1
   358   237   263    1
   359   238   239    1
   360   238   261    1
   361   239   242    1
   362   240   241    1
   363   240   260    1
   364   240   262    1
   365   241   262    1
   366   242   258    1
   367   242   266    1
@<TRIPOS>SUBSTRUCTURE
     1 RES1        1 GROUP             0 ****  ****    0  
     2 RES2      267 GROUP             0 ****  ****    0  
     3 RES3      268 GROUP             0 ****  ****    0  
     4 RES4      269 GROUP             0 ****  ****    0  
@<TRIPOS>CRYSIN
   28.1991   28.1991   28.1991   90.0000   90.0000   90.0000   221     1
