####################################################################### 
# 
# This file contains crystal structure data downloaded from the 
# Cambridge Structural Database (CSD) hosted by the Cambridge 
# Crystallographic Data Centre (CCDC).
# 
# Full information about CCDC data access policies and citation 
# guidelines are available at http://www.ccdc.cam.ac.uk/access/V1 
# 
# Audit and citation data items may have been added by the CCDC. 
# Please retain this information to preserve the provenance of 
# this file and to allow appropriate attribution of the data. 
# 
#######################################################################
@<TRIPOS>MOLECULE
FATQID
   112   123     1     0     0
SMALL
NO_CHARGES
****
Generated from the CSD

@<TRIPOS>ATOM
     1 C1      28.1842   6.2566  12.2813   C.2       1 RES1   0.0000
     2 C2      28.9277   6.8975  11.1648   C.2       1 RES1   0.0000
     3 C3      28.5153   8.1182  10.6602   C.2       1 RES1   0.0000
     4 H3      27.7751   8.5368  11.0323   H         1 RES1   0.0000
     5 C4      29.1838   8.7273   9.6113   C.2       1 RES1   0.0000
     6 H4      28.8933   9.5488   9.2843   H         1 RES1   0.0000
     7 C5      30.7175   6.9250   9.5549   C.2       1 RES1   0.0000
     8 H5      31.4640   6.5033   9.1969   H         1 RES1   0.0000
     9 C6      30.0272   6.3284  10.6263   C.2       1 RES1   0.0000
    10 H6      30.3333   5.5225  10.9703   H         1 RES1   0.0000
    11 C7      30.3052   8.0995   9.0418   C.2       1 RES1   0.0000
    12 C8      31.1204  10.1267   7.8351   C.2       1 RES1   0.0000
    13 H8      30.7237  10.6421   8.5033   H         1 RES1   0.0000
    14 C9      31.0080   8.7364   7.9056   C.2       1 RES1   0.0000
    15 C10     31.6171   7.9839   6.8963   C.2       1 RES1   0.0000
    16 H10     31.5702   7.0562   6.9216   H         1 RES1   0.0000
    17 C11     32.3043   8.6211   5.8474   C.2       1 RES1   0.0000
    18 C12     32.3293  10.0093   5.8728   C.2       1 RES1   0.0000
    19 H12     32.7572  10.4547   5.1792   H         1 RES1   0.0000
    20 C13     33.0071   7.8624   4.7986   C.2       1 RES1   0.0000
    21 C14     32.5073   6.6783   4.3785   C.2       1 RES1   0.0000
    22 H14     31.7327   6.3472   4.7704   H         1 RES1   0.0000
    23 C15     33.1414   5.9286   3.3523   C.2       1 RES1   0.0000
    24 H15     32.7728   5.1290   3.0562   H         1 RES1   0.0000
    25 C16     34.3284   6.4096   2.7997   C.2       1 RES1   0.0000
    26 C17     34.7969   7.5966   3.2423   C.2       1 RES1   0.0000
    27 H17     35.5747   7.9464   2.8673   H         1 RES1   0.0000
    28 C18     34.1503   8.3057   4.2432   C.2       1 RES1   0.0000
    29 H18     34.5158   9.1053   4.5421   H         1 RES1   0.0000
    30 C19     35.0405   5.6287   1.7819   C.2       1 RES1   0.0000
    31 O3      36.1385   6.0941   1.3770   O.co2     1 RES1   0.0000
    32 O4      34.5089   4.5608   1.3840   O.co2     1 RES1   0.0000
    33 Cu1     26.0202   6.0120  14.0970   Cu        1 RES1   0.0000
    34 Cu2     27.8082   4.0794  14.0970   Cu        1 RES1   0.0000
    35 Cu3     31.9101  12.7627   6.9247   Cu        1 RES1   0.0000
    36 Cu4     31.2360  15.6180   8.4481   Cu        1 RES1   0.0000
    37 N1      31.7679  10.7477   6.8472   N.2       1 RES1   0.0000
    38 O1      27.1497   6.8082  12.7084   O.co2     1 RES1   0.0000
    39 O2      28.6537   5.1661  12.6949   O.co2     1 RES1   0.0000
    40 O5      24.4547   7.4841  14.0970   O.3       1 RES1   0.0000
    41 O6      29.2556   2.5051  14.0970   O.3       1 RES1   0.0000
    42 O7      32.1703  14.6837   7.0485   O.3       1 RES1   0.0000
    43 O8      32.3099  12.4994   8.8625   O.3       1 RES1   0.0000
    44 O9      32.0438  14.6225   9.9220   O.3       1 RES1   0.0000
    45 O10     34.1566  13.9812   9.0026   O.2       1 RES1   0.0000
    46 O11     33.3422  12.9273  10.9635   O.2       1 RES1   0.0000
    47 O12     29.9534  13.0879   6.2252   O.3       1 RES1   0.0000
    48 O13     28.6934  11.9487   7.9451   O.2       1 RES1   0.0000
    49 S1      32.9852  13.4974   9.7032   S.o2      1 RES1   0.0000
    50 S2      28.7199  13.1019   7.0485   S.o2      1 RES1   0.0000
    51 O12     28.7059  14.3354   7.8718   O.2       1 RES1   0.0000
    52 O13     27.5667  13.0754   6.1519   O.3       1 RES1   0.0000
    53 C1      34.2878  24.9794  12.2813   C.2       1 RES1   0.0000
    54 C2      33.5443  24.3385  11.1648   C.2       1 RES1   0.0000
    55 C3      33.9567  23.1178  10.6602   C.2       1 RES1   0.0000
    56 H3      34.6969  22.6992  11.0323   H         1 RES1   0.0000
    57 C4      33.2882  22.5087   9.6113   C.2       1 RES1   0.0000
    58 H4      33.5787  21.6872   9.2843   H         1 RES1   0.0000
    59 C5      31.7545  24.3110   9.5549   C.2       1 RES1   0.0000
    60 H5      31.0080  24.7327   9.1969   H         1 RES1   0.0000
    61 C6      32.4448  24.9076  10.6263   C.2       1 RES1   0.0000
    62 H6      32.1387  25.7135  10.9703   H         1 RES1   0.0000
    63 C7      32.1668  23.1365   9.0418   C.2       1 RES1   0.0000
    64 C8      31.3516  21.1093   7.8351   C.2       1 RES1   0.0000
    65 H8      31.7483  20.5939   8.5033   H         1 RES1   0.0000
    66 C9      31.4640  22.4996   7.9056   C.2       1 RES1   0.0000
    67 C10     30.8549  23.2521   6.8963   C.2       1 RES1   0.0000
    68 H10     30.9018  24.1798   6.9216   H         1 RES1   0.0000
    69 C11     30.1677  22.6149   5.8474   C.2       1 RES1   0.0000
    70 C12     30.1427  21.2267   5.8728   C.2       1 RES1   0.0000
    71 H12     29.7148  20.7813   5.1792   H         1 RES1   0.0000
    72 C13     29.4649  23.3736   4.7986   C.2       1 RES1   0.0000
    73 C14     29.9647  24.5577   4.3785   C.2       1 RES1   0.0000
    74 H14     30.7393  24.8888   4.7704   H         1 RES1   0.0000
    75 C15     29.3306  25.3074   3.3523   C.2       1 RES1   0.0000
    76 H15     29.6992  26.1070   3.0562   H         1 RES1   0.0000
    77 C16     28.1436  24.8264   2.7997   C.2       1 RES1   0.0000
    78 C17     27.6751  23.6394   3.2423   C.2       1 RES1   0.0000
    79 H17     26.8973  23.2896   2.8673   H         1 RES1   0.0000
    80 C18     28.3217  22.9303   4.2432   C.2       1 RES1   0.0000
    81 H18     27.9562  22.1307   4.5421   H         1 RES1   0.0000
    82 C19     27.4315  25.6073   1.7819   C.2       1 RES1   0.0000
    83 O3      26.3335  25.1419   1.3770   O.co2     1 RES1   0.0000
    84 O4      27.9631  26.6752   1.3840   O.co2     1 RES1   0.0000
    85 Cu3     30.5619  18.4733   6.9247   Cu        1 RES1   0.0000
    86 N1      30.7041  20.4883   6.8472   N.2       1 RES1   0.0000
    87 O1      35.3223  24.4278  12.7084   O.co2     1 RES1   0.0000
    88 O2      33.8183  26.0699  12.6949   O.co2     1 RES1   0.0000
    89 O8      30.1621  18.7366   8.8625   O.3       1 RES1   0.0000
    90 O9      30.4282  16.6135   9.9220   O.3       1 RES1   0.0000
    91 O10     28.3154  17.2548   9.0026   O.2       1 RES1   0.0000
    92 O11     29.1298  18.3087  10.9635   O.2       1 RES1   0.0000
    93 S1      29.4868  17.7386   9.7032   S.o2      1 RES1   0.0000
    94 O3      25.1419   4.9025  15.4740   O.3       1 RES1   0.0000
    95 O3      25.1419   4.9025  12.7200   O.3       1 RES1   0.0000
    96 O4      26.6752   3.2729  15.4810   O.3       1 RES1   0.0000
    97 O4      26.6752   3.2729  12.7130   O.3       1 RES1   0.0000
    98 Cu1     25.2240  26.0202   0.0000   Cu        1 RES1   0.0000
    99 Cu1     36.4518  25.2240  14.0970   Cu        1 RES1   0.0000
   100 Cu1     37.2480   5.2158   0.0000   Cu        1 RES1   0.0000
   101 Cu2     27.1566  27.8082   0.0000   Cu        1 RES1   0.0000
   102 Cu2     34.6638  27.1566  14.0970   Cu        1 RES1   0.0000
   103 Cu2     35.3154   3.4278   0.0000   Cu        1 RES1   0.0000
   104 Cu3     28.3807  16.2921   7.1723   Cu        1 RES1   0.0000
   105 Cu3     34.0913  14.9439   7.1723   Cu        1 RES1   0.0000
   106 Cu4     31.2360  15.6180   5.6489   Cu        1 RES1   0.0000
   107 O1      27.1497   6.8082  15.4856   O.3       1 RES1   0.0000
   108 O2      28.6537   5.1661  15.4991   O.3       1 RES1   0.0000
   109 O7      30.3017  16.5523   7.0485   O.3       1 RES1   0.0000
   110 O10     29.5992  18.5386   5.0944   O.3       1 RES1   0.0000
   111 O10     32.8728  12.6974   5.0944   O.3       1 RES1   0.0000
   112 O12     32.5186  18.1481   6.2252   O.3       1 RES1   0.0000
@<TRIPOS>BOND
     1     1     2    1
     2     1    38   un
     3     1    39   un
     4     2     3    1
     5     2     9    2
     6     3     4    1
     7     3     5    2
     8     5     6    1
     9     5    11    1
    10     7     8    1
    11     7     9    1
    12     7    11    2
    13     9    10    1
    14    11    14    1
    15    12    13    1
    16    12    14    1
    17    12    37    2
    18    14    15    2
    19    15    16    1
    20    15    17    1
    21    17    18    2
    22    17    20    1
    23    18    19    1
    24    18    37    1
    25    20    21    1
    26    20    28    2
    27    21    22    1
    28    21    23    2
    29    23    24    1
    30    23    25    1
    31    25    26    2
    32    25    30    1
    33    26    27    1
    34    26    28    1
    35    28    29    1
    36    30    31   un
    37    30    32   un
    38    31   100    1
    39    32   103    1
    40    33    38    1
    41    33    40    1
    42    33    94    1
    43    33    95    1
    44    33   107    1
    45    34    39    1
    46    34    41    1
    47    34    96    1
    48    34    97    1
    49    34   108    1
    50    35    37    1
    51    35    42    1
    52    35    43    1
    53    35    47    1
    54    35   111    1
    55    36    42    1
    56    36    44    1
    57    36    90    1
    58    36   109    1
    59    42   105    1
    60    42   106    1
    61    43    49    1
    62    44    49    1
    63    45    49    2
    64    45   105    1
    65    46    49    2
    66    47    50    1
    67    48    50    2
    68    50    51    2
    69    50    52    1
    70    51   104    1
    71    53    54    1
    72    53    87   un
    73    53    88   un
    74    54    55    1
    75    54    61    2
    76    55    56    1
    77    55    57    2
    78    57    58    1
    79    57    63    1
    80    59    60    1
    81    59    61    1
    82    59    63    2
    83    61    62    1
    84    63    66    1
    85    64    65    1
    86    64    66    1
    87    64    86    2
    88    66    67    2
    89    67    68    1
    90    67    69    1
    91    69    70    2
    92    69    72    1
    93    70    71    1
    94    70    86    1
    95    72    73    1
    96    72    80    2
    97    73    74    1
    98    73    75    2
    99    75    76    1
   100    75    77    1
   101    77    78    2
   102    77    82    1
   103    78    79    1
   104    78    80    1
   105    80    81    1
   106    82    83   un
   107    82    84   un
   108    83    98    1
   109    84   101    1
   110    85    86    1
   111    85    89    1
   112    85   109    1
   113    85   110    1
   114    85   112    1
   115    87    99    1
   116    88   102    1
   117    89    93    1
   118    90    93    1
   119    91    93    2
   120    91   104    1
   121    92    93    2
   122   104   109    1
   123   106   109    1
@<TRIPOS>SUBSTRUCTURE
     1 RES1        1 GROUP             0 ****  ****    0  
@<TRIPOS>CRYSIN
   31.2360   31.2360   28.1940   90.0000   90.0000   90.0000   135     1
