####################################################################### 
# 
# This file contains crystal structure data downloaded from the 
# Cambridge Structural Database (CSD) hosted by the Cambridge 
# Crystallographic Data Centre (CCDC).
# 
# Full information about CCDC data access policies and citation 
# guidelines are available at http://www.ccdc.cam.ac.uk/access/V1 
# 
# Audit and citation data items may have been added by the CCDC. 
# Please retain this information to preserve the provenance of 
# this file and to allow appropriate attribution of the data. 
# 
#######################################################################
@<TRIPOS>MOLECULE
NIZGIP
   107   119     2     0     0
SMALL
USER_CHARGES
****
Generated from the CSD

@<TRIPOS>ATOM
     1 Ni1      9.3439   5.3936   1.5606   Ni        1 RES1   0.0000
     2 N1       6.4288   5.9686   2.3466   N.2       1 RES1   0.0000
     3 N2       7.6619   5.6097   2.7935   N.2       1 RES1   0.0000
     4 N3       1.8396   7.9602   1.0294   N.pl3     1 RES1   0.0000
     5 N4       0.7568   9.1600  -0.4580   N.2       1 RES1   0.0000
     6 C1       5.7142   6.1882   3.4590   C.2       1 RES1   0.0000
     7 C2       4.3660   6.7141   3.4590   C.2       1 RES1   0.0000
     8 C3       3.7335   7.0168   2.2497   C.2       1 RES1   0.0000
     9 H3A      4.1511   6.8339   1.4389   H         1 RES1   0.0000
    10 C4       2.4759   7.5961   2.2760   C.2       1 RES1   0.0000
    11 C5       1.8125   7.8647   3.4590   C.2       1 RES1   0.0000
    12 H5A      0.9521   8.2159   3.4590   H         1 RES1   0.0000
    13 C6       1.2174   9.1059   0.7568   C.2       1 RES1   0.0000
    14 H6A      1.1212   9.7969   1.3725   H         1 RES1   0.0000
    15 C8       1.7686   7.2093  -0.1148   C.2       1 RES1   0.0000
    16 H8A      2.1078   6.3533  -0.2380   H         1 RES1   0.0000
    17 C7       1.1118   7.9553  -1.0308   C.2       1 RES1   0.0000
    18 H7A      0.9287   7.6997  -1.9052   H         1 RES1   0.0000
    19 N1       6.4288   5.9686   4.5714   N.2       1 RES1   0.0000
    20 N2       7.6619   5.6097   4.1245   N.2       1 RES1   0.0000
    21 N3       1.8396   7.9602   5.8886   N.pl3     1 RES1   0.0000
    22 N4       0.7568   9.1600   7.3760   N.2       1 RES1   0.0000
    23 C3       3.7335   7.0168   4.6683   C.2       1 RES1   0.0000
    24 H3A      4.1511   6.8339   5.4791   H         1 RES1   0.0000
    25 C4       2.4759   7.5961   4.6420   C.2       1 RES1   0.0000
    26 C6       1.2174   9.1059   6.1612   C.2       1 RES1   0.0000
    27 H6A      1.1212   9.7969   5.5455   H         1 RES1   0.0000
    28 C8       1.7686   7.2093   7.0328   C.2       1 RES1   0.0000
    29 H8A      2.1078   6.3533   7.1560   H         1 RES1   0.0000
    30 C7       1.1118   7.9553   7.9488   C.2       1 RES1   0.0000
    31 H7A      0.9287   7.6997   8.8232   H         1 RES1   0.0000
    32 N1      10.3026   2.5832   2.3466   N.2       1 RES1   0.0000
    33 N2       9.9969   3.8306   2.7935   N.2       1 RES1   0.0000
    34 N3      10.8724  -2.3869   1.0294   N.pl3     1 RES1   0.0000
    35 N4      10.3748  -3.9246  -0.4580   N.2       1 RES1   0.0000
    36 C1      10.4698   1.8545   3.4590   C.2       1 RES1   0.0000
    37 C2      10.6884   0.4240   3.4590   C.2       1 RES1   0.0000
    38 C3      10.7426  -0.2751   2.2497   C.2       1 RES1   0.0000
    39 H3A     10.6921   0.1780   1.4389   H         1 RES1   0.0000
    40 C4      10.8696  -1.6539   2.2760   C.2       1 RES1   0.0000
    41 C5      10.9687  -2.3627   3.4590   C.2       1 RES1   0.0000
    42 H5A     11.0948  -3.2834   3.4590   H         1 RES1   0.0000
    43 C6      10.1913  -3.4987   0.7568   C.2       1 RES1   0.0000
    44 H6A      9.6410  -3.9275   1.3725   H         1 RES1   0.0000
    45 C8      11.5582  -2.0730  -0.1148   C.2       1 RES1   0.0000
    46 H8A     12.1300  -1.3512  -0.2380   H         1 RES1   0.0000
    47 C7      11.2406  -3.0148  -1.0308   C.2       1 RES1   0.0000
    48 H7A     11.5536  -3.0456  -1.9052   H         1 RES1   0.0000
    49 N1      10.3026   2.5832   4.5714   N.2       1 RES1   0.0000
    50 N2       9.9969   3.8306   4.1245   N.2       1 RES1   0.0000
    51 N3      10.8724  -2.3869   5.8886   N.pl3     1 RES1   0.0000
    52 N4      10.3748  -3.9246   7.3760   N.2       1 RES1   0.0000
    53 C3      10.7426  -0.2751   4.6683   C.2       1 RES1   0.0000
    54 H3A     10.6921   0.1780   5.4791   H         1 RES1   0.0000
    55 C4      10.8696  -1.6539   4.6420   C.2       1 RES1   0.0000
    56 C6      10.1913  -3.4987   6.1612   C.2       1 RES1   0.0000
    57 H6A      9.6410  -3.9275   5.5455   H         1 RES1   0.0000
    58 C8      11.5582  -2.0730   7.0328   C.2       1 RES1   0.0000
    59 H8A     12.1300  -1.3512   7.1560   H         1 RES1   0.0000
    60 C7      11.2406  -3.0148   7.9488   C.2       1 RES1   0.0000
    61 H7A     11.5536  -3.0456   8.8232   H         1 RES1   0.0000
    62 N1      11.2976   7.6307   2.3466   N.2       1 RES1   0.0000
    63 N2      10.3702   6.7423   2.7935   N.2       1 RES1   0.0000
    64 N3      15.3169  10.6093   1.0294   N.pl3     1 RES1   0.0000
    65 N4      16.8974  10.9472  -0.4580   N.2       1 RES1   0.0000
    66 C1      11.8451   8.1398   3.4590   C.2       1 RES1   0.0000
    67 C2      12.9746   9.0444   3.4590   C.2       1 RES1   0.0000
    68 C3      13.5530   9.4409   2.2497   C.2       1 RES1   0.0000
    69 H3A     13.1858   9.1707   1.4389   H         1 RES1   0.0000
    70 C4      14.6835  10.2403   2.2760   C.2       1 RES1   0.0000
    71 C5      15.2478  10.6805   3.4590   C.2       1 RES1   0.0000
    72 H5A     15.9821  11.2501   3.4590   H         1 RES1   0.0000
    73 C6      16.6203  10.5753   0.7568   C.2       1 RES1   0.0000
    74 H6A     17.2668  10.3131   1.3725   H         1 RES1   0.0000
    75 C8      14.7021  11.0462  -0.1148   C.2       1 RES1   0.0000
    76 H8A     13.7912  11.1805  -0.2380   H         1 RES1   0.0000
    77 C7      15.6766  11.2420  -1.0308   C.2       1 RES1   0.0000
    78 H7A     15.5468  11.5284  -1.9052   H         1 RES1   0.0000
    79 N1      11.2976   7.6307   4.5714   N.2       1 RES1   0.0000
    80 N2      10.3702   6.7423   4.1245   N.2       1 RES1   0.0000
    81 N3      15.3169  10.6093   5.8886   N.pl3     1 RES1   0.0000
    82 N4      16.8974  10.9472   7.3760   N.2       1 RES1   0.0000
    83 C3      13.5530   9.4409   4.6683   C.2       1 RES1   0.0000
    84 H3A     13.1858   9.1707   5.4791   H         1 RES1   0.0000
    85 C4      14.6835  10.2403   4.6420   C.2       1 RES1   0.0000
    86 C6      16.6203  10.5753   6.1612   C.2       1 RES1   0.0000
    87 H6A     17.2668  10.3131   5.5455   H         1 RES1   0.0000
    88 C8      14.7021  11.0462   7.0328   C.2       1 RES1   0.0000
    89 H8A     13.7912  11.1805   7.1560   H         1 RES1   0.0000
    90 C7      15.6766  11.2420   7.9488   C.2       1 RES1   0.0000
    91 H7A     15.5468  11.5284   8.8232   H         1 RES1   0.0000
    92 Ni1     -0.0009  10.7889  -1.5606   Ni        1 RES1   1.0000
    93 Ni1      9.3439  -5.3936   8.4786   Ni        1 RES1   0.0000
    94 Ni1      0.0009  10.7889   8.4786   Ni        1 RES1   0.0000
    95 Ni1     18.6869  10.7889   8.4786   Ni        1 RES1   0.0000
    96 Ni1      9.3421  -5.3936  -1.5606   Ni        1 RES1   0.0000
    97 Ni1     18.6851  10.7889  -1.5606   Ni        1 RES1   0.0000
    98 Ni1      9.3421   5.3936   5.3574   Ni        1 RES1   0.0000
    99 N2       1.6811  10.5729  -2.7935   N.3       1 RES1   0.0000
   100 N2      -0.6539  12.3520  -2.7935   N.3       1 RES1   0.0000
   101 N2      -1.0272   9.4403  -2.7935   N.3       1 RES1   0.0000
   102 N4       1.0318  12.2580  -0.4580   N.3       1 RES1   0.0000
   103 N4      -1.7886  10.9472  -0.4580   N.3       1 RES1   0.0000
   104 N4       8.5862   7.0226   0.4580   N.3       1 RES1   0.0000
   105 N4       8.3112   3.9246   0.4580   N.3       1 RES1   0.0000
   106 N4      11.1316   5.2354   0.4580   N.3       1 RES1   0.0000
   107 Cl1     -0.0009  10.7889   3.4590   Cl        2 RES2  -1.0000
@<TRIPOS>BOND
     1     1     3    1
     2     1    33    1
     3     1    63    1
     4     1   104    1
     5     1   105    1
     6     1   106    1
     7     2     3    2
     8     2     6    1
     9     3    20    1
    10     4    10    1
    11     4    13    1
    12     4    15    1
    13     5    13    2
    14     5    17    1
    15     5    92    1
    16     6     7    1
    17     6    19    2
    18     7     8    2
    19     7    23    1
    20     8     9    1
    21     8    10    1
    22    10    11    2
    23    11    12    1
    24    11    25    1
    25    13    14    1
    26    15    16    1
    27    15    17    2
    28    17    18    1
    29    19    20    1
    30    20    98    1
    31    21    25    1
    32    21    26    1
    33    21    28    1
    34    22    26    2
    35    22    30    1
    36    22    94    1
    37    23    24    1
    38    23    25    2
    39    26    27    1
    40    28    29    1
    41    28    30    2
    42    30    31    1
    43    32    33    1
    44    32    36    2
    45    33    50    1
    46    34    40    1
    47    34    43    1
    48    34    45    1
    49    35    43    2
    50    35    47    1
    51    35    96    1
    52    36    37    1
    53    36    49    1
    54    37    38    2
    55    37    53    1
    56    38    39    1
    57    38    40    1
    58    40    41    2
    59    41    42    1
    60    41    55    1
    61    43    44    1
    62    45    46    1
    63    45    47    2
    64    47    48    1
    65    49    50    2
    66    50    98    1
    67    51    55    1
    68    51    56    1
    69    51    58    1
    70    52    56    2
    71    52    60    1
    72    52    93    1
    73    53    54    1
    74    53    55    2
    75    56    57    1
    76    58    59    1
    77    58    60    2
    78    60    61    1
    79    62    63    2
    80    62    66    1
    81    63    80    1
    82    64    70    1
    83    64    73    1
    84    64    75    1
    85    65    73    2
    86    65    77    1
    87    65    97    1
    88    66    67    1
    89    66    79    2
    90    67    68    2
    91    67    83    1
    92    68    69    1
    93    68    70    1
    94    70    71    2
    95    71    72    1
    96    71    85    1
    97    73    74    1
    98    75    76    1
    99    75    77    2
   100    77    78    1
   101    79    80    1
   102    80    98    1
   103    81    85    1
   104    81    86    1
   105    81    88    1
   106    82    86    2
   107    82    90    1
   108    82    95    1
   109    83    84    1
   110    83    85    2
   111    86    87    1
   112    88    89    1
   113    88    90    2
   114    90    91    1
   115    92    99    1
   116    92   100    1
   117    92   101    1
   118    92   102    1
   119    92   103    1
@<TRIPOS>SUBSTRUCTURE
     1 RES1        1 GROUP             0 ****  ****    0  
     2 RES2      107 GROUP             0 ****  ****    0  
@<TRIPOS>CRYSIN
   18.6860   18.6860   13.8360   90.0000   90.0000  120.0000   176     1
