####################################################################### 
# 
# This file contains crystal structure data downloaded from the 
# Cambridge Structural Database (CSD) hosted by the Cambridge 
# Crystallographic Data Centre (CCDC).
# 
# Full information about CCDC data access policies and citation 
# guidelines are available at http://www.ccdc.cam.ac.uk/access/V1 
# 
# Audit and citation data items may have been added by the CCDC. 
# Please retain this information to preserve the provenance of 
# this file and to allow appropriate attribution of the data. 
# 
#######################################################################
@<TRIPOS>MOLECULE
JEYTEP
    59    58     5     0     0
SMALL
USER_CHARGES
****
Generated from the CSD

@<TRIPOS>ATOM
     1 Zn1     -6.8232  16.4290   6.0581   Zn        1 RES1   0.0000
     2 O1      -4.8983  16.1787   6.1174   O.co2     1 RES1  -1.0000
     3 O2      -4.8132  15.3469   4.0974   O.co2     1 RES1   0.0000
     4 O3       5.2918  15.4521   0.2248   O.co2     1 RES1   0.0000
     5 O4       4.2233  17.2919  -0.3182   O.co2     1 RES1   0.0000
     6 O5       5.2576  16.2309  10.3855   O.co2     1 RES1   0.0000
     7 O6       3.8920  14.6108  11.0179   O.co2     1 RES1   0.0000
     8 O7      -7.6693  14.6219   6.2759   O.2       1 RES1   0.0000
     9 N1       1.4258  15.9709   5.2856   N.pl3     1 RES1   0.0000
    10 N2      -7.9973  12.6563   7.2961   N.am      1 RES1   0.0000
    11 H2      -7.5678  11.9987   7.6485   H         1 RES1   0.0000
    12 C1       0.0232  15.8920   5.2392   C.2       1 RES1   0.0000
    13 C2      -0.7385  16.3866   6.2895   C.2       1 RES1   0.0000
    14 H2A     -0.3154  16.7554   7.0311   H         1 RES1   0.0000
    15 C3      -2.1264  16.3348   6.2431   C.2       1 RES1   0.0000
    16 H3      -2.6182  16.6610   6.9615   H         1 RES1   0.0000
    17 C4      -2.7795  15.8139   5.1627   C.2       1 RES1   0.0000
    18 C5      -2.0076  15.3428   4.1056   C.2       1 RES1   0.0000
    19 H5      -2.4309  14.9973   3.3530   H         1 RES1   0.0000
    20 C6      -0.6294  15.3720   4.1425   C.2       1 RES1   0.0000
    21 H6      -0.1399  15.0384   3.4254   H         1 RES1   0.0000
    22 C7      -4.2646  15.7762   5.1204   C.2       1 RES1   0.0000
    23 C8       2.1819  16.0793   4.0892   C.2       1 RES1   0.0000
    24 C9       3.2574  15.2311   3.8666   C.2       1 RES1   0.0000
    25 H9       3.5005  14.6071   4.5126   H         1 RES1   0.0000
    26 C10      3.9637  15.3107   2.6865   C.2       1 RES1   0.0000
    27 H10      4.6578  14.7139   2.5254   H         1 RES1   0.0000
    28 C11      3.6532  16.2642   1.7441   C.2       1 RES1   0.0000
    29 C12      2.6047  17.1190   1.9831   C.2       1 RES1   0.0000
    30 H12      2.4001  17.7783   1.3590   H         1 RES1   0.0000
    31 C13      1.8451  17.0159   3.1345   C.2       1 RES1   0.0000
    32 H13      1.1147  17.5729   3.2643   H         1 RES1   0.0000
    33 C14      4.4486  16.3586   0.4685   C.2       1 RES1   0.0000
    34 C15      2.1193  15.8205   6.5217   C.2       1 RES1   0.0000
    35 C16      3.2097  16.6454   6.7785   C.2       1 RES1   0.0000
    36 H16      3.4673  17.2853   6.1557   H         1 RES1   0.0000
    37 C17      3.9127  16.5073   7.9722   C.2       1 RES1   0.0000
    38 H17      4.6602  17.0348   8.1306   H         1 RES1   0.0000
    39 C18      3.5071  15.5938   8.9173   C.2       1 RES1   0.0000
    40 C19      2.4205  14.7969   8.6551   C.2       1 RES1   0.0000
    41 H19      2.1416  14.1758   9.2902   H         1 RES1   0.0000
    42 C20      1.7389  14.9029   7.4696   C.2       1 RES1   0.0000
    43 H20      1.0127  14.3483   7.3057   H         1 RES1   0.0000
    44 C21      4.2983  15.4993  10.2012   C.2       1 RES1   0.0000
    45 C22     -7.4020  13.8098   7.1226   C.2       1 RES1   0.0000
    46 H22     -6.7093  14.0197   7.7072   H         1 RES1   0.0000
    47 C23     -9.3892  12.4834   6.8905   C.3       1 RES1   0.0000
    48 H23A    -9.6714  11.5838   7.0803   H         1 RES1   0.0000
    49 H23B    -9.4722  12.6518   5.9494   H         1 RES1   0.0000
    50 H23C    -9.9441  13.0996   7.3753   H         1 RES1   0.0000
    51 Zn1      6.0764  15.9979  -1.5055   Zn        1 RES1   0.0000
    52 Zn1      6.0764  15.9979  12.1525   Zn        1 RES1   0.0000
    53 O3      -7.6883  16.8357   4.3279   O.3       1 RES1   0.0000
    54 O4      -6.6291  18.6809   4.8709   O.3       1 RES1   0.0000
    55 O5      -7.0308  17.2547   7.8251   O.3       1 RES1   0.0000
    56 C23'?   -8.8105  12.0151   6.1201   C.3       2 RES2   0.0000
    57 H23D?   -9.1733  11.1730   6.4015   H         3 RES3   0.0000
    58 H23E?   -8.2318  11.8837   5.3662   H         4 RES4   0.0000
    59 H23F?   -9.5291  12.6025   5.8716   H         5 RES5   0.0000
@<TRIPOS>BOND
     1     1     2    1
     2     1     8    1
     3     1    53    1
     4     1    54    1
     5     1    55    1
     6     2    22    1
     7     3    22    2
     8     4    33   un
     9     4    51    1
    10     5    33   un
    11     5    51    1
    12     6    44    1
    13     6    52    1
    14     7    44    2
    15     8    45    2
    16     9    12    1
    17     9    23    1
    18     9    34    1
    19    10    11    1
    20    10    45   am
    21    10    47    1
    22    12    13    2
    23    12    20    1
    24    13    14    1
    25    13    15    1
    26    15    16    1
    27    15    17    2
    28    17    18    1
    29    17    22    1
    30    18    19    1
    31    18    20    2
    32    20    21    1
    33    23    24    1
    34    23    31    2
    35    24    25    1
    36    24    26    2
    37    26    27    1
    38    26    28    1
    39    28    29    2
    40    28    33    1
    41    29    30    1
    42    29    31    1
    43    31    32    1
    44    34    35    1
    45    34    42    2
    46    35    36    1
    47    35    37    2
    48    37    38    1
    49    37    39    1
    50    39    40    2
    51    39    44    1
    52    40    41    1
    53    40    42    1
    54    42    43    1
    55    45    46    1
    56    47    48    1
    57    47    49    1
    58    47    50    1
@<TRIPOS>SUBSTRUCTURE
     1 RES1        1 GROUP             0 ****  ****    0  
     2 RES2       56 GROUP             0 ****  ****    0  
     3 RES3       57 GROUP             0 ****  ****    0  
     4 RES4       58 GROUP             0 ****  ****    0  
     5 RES5       59 GROUP             0 ****  ****    0  
@<TRIPOS>CRYSIN
   47.4320   47.4320   13.6580   90.0000   90.0000  120.0000   233     1
