####################################################################### 
# 
# This file contains crystal structure data downloaded from the 
# Cambridge Structural Database (CSD) hosted by the Cambridge 
# Crystallographic Data Centre (CCDC).
# 
# Full information about CCDC data access policies and citation 
# guidelines are available at http://www.ccdc.cam.ac.uk/access/V1 
# 
# Audit and citation data items may have been added by the CCDC. 
# Please retain this information to preserve the provenance of 
# this file and to allow appropriate attribution of the data. 
# 
#######################################################################
@<TRIPOS>MOLECULE
FINCIR
   314   260    94     0     0
SMALL
USER_CHARGES
****
Generated from the CSD

@<TRIPOS>ATOM
     1 O1W    -29.1758   9.7044 -27.4932   O.3       1 RES1   0.0000
     2 Cu1    -36.8203  19.4089 -33.0303   Cu        1 RES1   0.0000
     3 Cu2    -27.5976   9.7044 -36.6576   Cu        1 RES1   0.0000
     4 Cu3    -29.0257   9.7044 -29.8320   Cu        1 RES1   0.0000
     5 Cu4    -28.3600   9.7044 -33.2153   Cu        1 RES1   0.0000
     6 N1     -38.7661  19.4089 -33.4867   N.2       1 RES1   0.0000
     7 N2     -36.7933  17.4117 -33.0395   N.2       1 RES1   0.0000
     8 N3     -34.8963  19.4089 -32.5850   N.2       1 RES1   0.0000
     9 N4     -43.5607  12.0917 -33.4592   N.2       1 RES1  -1.0000
    10 N5     -44.1945  11.0844 -34.0714   N.2       1 RES1   0.0000
    11 N6     -43.9654  11.0980 -35.4021   N.2       1 RES1   0.0000
    12 N7     -43.1324  12.1150 -35.6312   N.2       1 RES1   0.0000
    13 N8     -30.0367  12.1034 -32.8910   N.2       1 RES1   0.0000
    14 N9     -29.3768  11.0786 -32.3027   N.2       1 RES1   0.0000
    15 N10    -29.6420  11.0922 -31.0087   N.2       1 RES1   0.0000
    16 N11    -30.4001  12.1441 -30.6238   N.2       1 RES1   0.0000
    17 Cl1    -26.8011   9.7044 -31.1223   Cl        1 RES1   0.0000
    18 Cl2    -29.7989   9.7044 -35.3453   Cl        1 RES1   0.0000
    19 C1     -40.9339  18.7141 -33.9046   C.2       1 RES1   0.0000
    20 H1     -41.6837  18.1454 -34.0403   H         1 RES1   0.0000
    21 C2     -39.6002  18.3162 -33.6645   C.2       1 RES1   0.0000
    22 C3     -39.1713  16.9828 -33.5857   C.2       1 RES1   0.0000
    23 C4     -37.9097  16.6082 -33.3401   C.2       1 RES1   0.0000
    24 C5     -37.4520  15.1816 -33.3199   C.2       1 RES1   0.0000
    25 H5     -37.9842  14.4130 -33.4886   H         1 RES1   0.0000
    26 C6     -36.1677  15.2011 -33.0193   C.2       1 RES1   0.0000
    27 H6     -35.6165  14.4325 -32.9314   H         1 RES1   0.0000
    28 C7     -35.7083  16.6101 -32.8416   C.2       1 RES1   0.0000
    29 C8     -34.4809  17.0216 -32.5648   C.2       1 RES1   0.0000
    30 C9     -34.0703  18.3356 -32.4585   C.2       1 RES1   0.0000
    31 C10    -32.7801  18.7354 -32.2807   C.2       1 RES1   0.0000
    32 H10    -32.0235  18.1706 -32.1744   H         1 RES1   0.0000
    33 C11    -40.2318  15.9269 -33.8075   C.2       1 RES1   0.0000
    34 C12    -40.3649  15.3777 -35.0135   C.2       1 RES1   0.0000
    35 H12A   -39.7684  15.6494 -35.7009   H         1 RES1   0.0000
    36 C13    -41.3264  14.4305 -35.3178   C.2       1 RES1   0.0000
    37 H13A   -41.4797  14.1782 -36.2196   H         1 RES1   0.0000
    38 C14    -42.0458  13.8657 -34.3207   C.2       1 RES1   0.0000
    39 C15    -41.8702  14.3878 -33.0065   C.2       1 RES1   0.0000
    40 H15A   -42.3801  14.0462 -32.2807   H         1 RES1   0.0000
    41 C16    -40.9347  15.4145 -32.7976   C.2       1 RES1   0.0000
    42 H16A   -40.8010  15.7503 -31.9196   H         1 RES1   0.0000
    43 C17    -42.9887  12.6934 -34.4966   C.2       1 RES1   0.0000
    44 C18    -33.4274  15.9483 -32.3613   C.2       1 RES1   0.0000
    45 C19    -32.7919  15.4184 -33.4427   C.2       1 RES1   0.0000
    46 H19A   -32.9596  15.7891 -34.3005   H         1 RES1   0.0000
    47 C20    -31.8378  14.2752 -33.3218   C.2       1 RES1   0.0000
    48 H20A   -31.4171  13.8696 -34.0714   H         1 RES1   0.0000
    49 C21    -31.6345  13.8715 -32.0607   C.2       1 RES1   0.0000
    50 C22    -32.2233  14.4519 -30.9555   C.2       1 RES1   0.0000
    51 H22A   -32.0326  14.1569 -30.0739   H         1 RES1   0.0000
    52 C23    -33.1129  15.4883 -31.2048   C.2       1 RES1   0.0000
    53 H23A   -33.5225  15.9347 -30.4606   H         1 RES1   0.0000
    54 C24    -30.7395  12.7109 -31.9215   C.2       1 RES1   0.0000
    55 N2     -36.7933  21.4061 -33.0395   N.2       1 RES1   0.0000
    56 N4     -43.5607  26.7261 -33.4592   N.2       1 RES1   0.0000
    57 N5     -44.1945  27.7334 -34.0714   N.2       1 RES1   0.0000
    58 N6     -43.9654  27.7198 -35.4021   N.2       1 RES1   0.0000
    59 N7     -43.1324  26.7028 -35.6312   N.2       1 RES1   0.0000
    60 N8     -30.0367  26.7144 -32.8910   N.2       1 RES1  -1.0000
    61 N9     -29.3768  27.7392 -32.3027   N.2       1 RES1   0.0000
    62 N10    -29.6420  27.7256 -31.0087   N.2       1 RES1   0.0000
    63 N11    -30.4001  26.6737 -30.6238   N.2       1 RES1   0.0000
    64 C1     -40.9339  20.1037 -33.9046   C.2       1 RES1   0.0000
    65 H1     -41.6837  20.6724 -34.0403   H         1 RES1   0.0000
    66 C2     -39.6002  20.5016 -33.6645   C.2       1 RES1   0.0000
    67 C3     -39.1713  21.8350 -33.5857   C.2       1 RES1   0.0000
    68 C4     -37.9097  22.2096 -33.3401   C.2       1 RES1   0.0000
    69 C5     -37.4520  23.6362 -33.3199   C.2       1 RES1   0.0000
    70 H5     -37.9842  24.4048 -33.4886   H         1 RES1   0.0000
    71 C6     -36.1677  23.6167 -33.0193   C.2       1 RES1   0.0000
    72 H6     -35.6165  24.3853 -32.9314   H         1 RES1   0.0000
    73 C7     -35.7083  22.2077 -32.8416   C.2       1 RES1   0.0000
    74 C8     -34.4809  21.7962 -32.5648   C.2       1 RES1   0.0000
    75 C9     -34.0703  20.4822 -32.4585   C.2       1 RES1   0.0000
    76 C10    -32.7801  20.0824 -32.2807   C.2       1 RES1   0.0000
    77 H10    -32.0235  20.6472 -32.1744   H         1 RES1   0.0000
    78 C11    -40.2318  22.8909 -33.8075   C.2       1 RES1   0.0000
    79 C12    -40.3649  23.4401 -35.0135   C.2       1 RES1   0.0000
    80 H12A   -39.7684  23.1684 -35.7009   H         1 RES1   0.0000
    81 C13    -41.3264  24.3873 -35.3178   C.2       1 RES1   0.0000
    82 H13A   -41.4797  24.6396 -36.2196   H         1 RES1   0.0000
    83 C14    -42.0458  24.9521 -34.3207   C.2       1 RES1   0.0000
    84 C15    -41.8702  24.4300 -33.0065   C.2       1 RES1   0.0000
    85 H15A   -42.3801  24.7716 -32.2807   H         1 RES1   0.0000
    86 C16    -40.9347  23.4033 -32.7976   C.2       1 RES1   0.0000
    87 H16A   -40.8010  23.0675 -31.9196   H         1 RES1   0.0000
    88 C17    -42.9887  26.1244 -34.4966   C.2       1 RES1   0.0000
    89 C18    -33.4274  22.8695 -32.3613   C.2       1 RES1   0.0000
    90 C19    -32.7919  23.3994 -33.4427   C.2       1 RES1   0.0000
    91 H19A   -32.9596  23.0287 -34.3005   H         1 RES1   0.0000
    92 C20    -31.8378  24.5426 -33.3218   C.2       1 RES1   0.0000
    93 H20A   -31.4171  24.9482 -34.0714   H         1 RES1   0.0000
    94 C21    -31.6345  24.9463 -32.0607   C.2       1 RES1   0.0000
    95 C22    -32.2233  24.3659 -30.9555   C.2       1 RES1   0.0000
    96 H22A   -32.0326  24.6609 -30.0739   H         1 RES1   0.0000
    97 C23    -33.1129  23.3295 -31.2048   C.2       1 RES1   0.0000
    98 H23A   -33.5225  22.8831 -30.4606   H         1 RES1   0.0000
    99 C24    -30.7395  26.1069 -31.9215   C.2       1 RES1   0.0000
   100 Cu1    -35.3302  19.4089 -40.2849   Cu        1 RES1   0.0000
   101 Cu3    -43.1248   9.7044 -43.4833   Cu        1 RES1   0.0000
   102 Cu4    -43.7905   9.7044 -40.0999   Cu        1 RES1   0.0000
   103 N1     -33.3843  19.4089 -39.8285   N.2       1 RES1   0.0000
   104 N2     -35.3572  17.4117 -40.2757   N.2       1 RES1   0.0000
   105 N3     -37.2542  19.4089 -40.7303   N.2       1 RES1   0.0000
   106 N4     -28.5898  12.0917 -39.8560   N.2       1 RES1   0.0000
   107 N5     -27.9559  11.0844 -39.2438   N.2       1 RES1   0.0000
   108 N6     -28.1851  11.0980 -37.9131   N.2       1 RES1   0.0000
   109 N7     -29.0181  12.1150 -37.6840   N.2       1 RES1   0.0000
   110 N8     -42.1137  12.1034 -40.4242   N.2       1 RES1   0.0000
   111 N9     -42.7737  11.0786 -41.0125   N.2       1 RES1   0.0000
   112 N10    -42.5085  11.0922 -42.3066   N.2       1 RES1   0.0000
   113 N11    -41.7504  12.1441 -42.6915   N.2       1 RES1   0.0000
   114 Cl1    -45.3494   9.7044 -42.1929   Cl        1 RES1   0.0000
   115 Cl2    -42.3516   9.7044 -37.9700   Cl        1 RES1   0.0000
   116 C1     -31.2165  18.7141 -39.4106   C.2       1 RES1   0.0000
   117 H1     -30.4667  18.1454 -39.2750   H         1 RES1   0.0000
   118 C2     -32.5503  18.3162 -39.6507   C.2       1 RES1   0.0000
   119 C3     -32.9792  16.9828 -39.7295   C.2       1 RES1   0.0000
   120 C4     -34.2408  16.6082 -39.9751   C.2       1 RES1   0.0000
   121 C5     -34.6985  15.1816 -39.9953   C.2       1 RES1   0.0000
   122 H5     -34.1663  14.4130 -39.8267   H         1 RES1   0.0000
   123 C6     -35.9828  15.2011 -40.2959   C.2       1 RES1   0.0000
   124 H6     -36.5339  14.4325 -40.3839   H         1 RES1   0.0000
   125 C7     -36.4422  16.6101 -40.4737   C.2       1 RES1   0.0000
   126 C8     -37.6695  17.0216 -40.7504   C.2       1 RES1   0.0000
   127 C9     -38.0802  18.3356 -40.8567   C.2       1 RES1   0.0000
   128 C10    -39.3704  18.7354 -41.0345   C.2       1 RES1   0.0000
   129 H10    -40.1269  18.1706 -41.1408   H         1 RES1   0.0000
   130 C11    -31.9187  15.9269 -39.5077   C.2       1 RES1   0.0000
   131 C12    -31.7856  15.3777 -38.3017   C.2       1 RES1   0.0000
   132 H12A   -32.3821  15.6494 -37.6144   H         1 RES1   0.0000
   133 C13    -30.8241  14.4305 -37.9975   C.2       1 RES1   0.0000
   134 H13A   -30.6708  14.1782 -37.0957   H         1 RES1   0.0000
   135 C14    -30.1047  13.8657 -38.9945   C.2       1 RES1   0.0000
   136 C15    -30.2802  14.3878 -40.3087   C.2       1 RES1   0.0000
   137 H15A   -29.7704  14.0462 -41.0345   H         1 RES1   0.0000
   138 C16    -31.2158  15.4145 -40.5177   C.2       1 RES1   0.0000
   139 H16A   -31.3494  15.7503 -41.3956   H         1 RES1   0.0000
   140 C17    -29.1618  12.6934 -38.8186   C.2       1 RES1   0.0000
   141 C18    -38.7230  15.9483 -40.9539   C.2       1 RES1   0.0000
   142 C19    -39.3586  15.4184 -39.8725   C.2       1 RES1   0.0000
   143 H19A   -39.1909  15.7891 -39.0147   H         1 RES1   0.0000
   144 C20    -40.3127  14.2752 -39.9935   C.2       1 RES1   0.0000
   145 H20A   -40.7334  13.8696 -39.2438   H         1 RES1   0.0000
   146 C21    -40.5160  13.8715 -41.2545   C.2       1 RES1   0.0000
   147 C22    -39.9272  14.4519 -42.3597   C.2       1 RES1   0.0000
   148 H22A   -40.1179  14.1569 -43.2413   H         1 RES1   0.0000
   149 C23    -39.0376  15.4883 -42.1104   C.2       1 RES1   0.0000
   150 H23A   -38.6280  15.9347 -42.8546   H         1 RES1   0.0000
   151 C24    -41.4110  12.7109 -41.3938   C.2       1 RES1   0.0000
   152 N2     -35.3572  21.4061 -40.2757   N.2       1 RES1   0.0000
   153 N4     -28.5898  26.7261 -39.8560   N.2       1 RES1   0.0000
   154 N5     -27.9559  27.7334 -39.2438   N.2       1 RES1   0.0000
   155 N6     -28.1851  27.7198 -37.9131   N.2       1 RES1   0.0000
   156 N7     -29.0181  26.7028 -37.6840   N.2       1 RES1   0.0000
   157 N8     -42.1137  26.7144 -40.4242   N.2       1 RES1   0.0000
   158 N9     -42.7737  27.7392 -41.0125   N.2       1 RES1   0.0000
   159 N10    -42.5085  27.7256 -42.3066   N.2       1 RES1   0.0000
   160 N11    -41.7504  26.6737 -42.6915   N.2       1 RES1   0.0000
   161 C1     -31.2165  20.1037 -39.4106   C.2       1 RES1   0.0000
   162 H1     -30.4667  20.6724 -39.2750   H         1 RES1   0.0000
   163 C2     -32.5503  20.5016 -39.6507   C.2       1 RES1   0.0000
   164 C3     -32.9792  21.8350 -39.7295   C.2       1 RES1   0.0000
   165 C4     -34.2408  22.2096 -39.9751   C.2       1 RES1   0.0000
   166 C5     -34.6985  23.6362 -39.9953   C.2       1 RES1   0.0000
   167 H5     -34.1663  24.4048 -39.8267   H         1 RES1   0.0000
   168 C6     -35.9828  23.6167 -40.2959   C.2       1 RES1   0.0000
   169 H6     -36.5339  24.3853 -40.3839   H         1 RES1   0.0000
   170 C7     -36.4422  22.2077 -40.4737   C.2       1 RES1   0.0000
   171 C8     -37.6695  21.7962 -40.7504   C.2       1 RES1   0.0000
   172 C9     -38.0802  20.4822 -40.8567   C.2       1 RES1   0.0000
   173 C10    -39.3704  20.0824 -41.0345   C.2       1 RES1   0.0000
   174 H10    -40.1269  20.6472 -41.1408   H         1 RES1   0.0000
   175 C11    -31.9187  22.8909 -39.5077   C.2       1 RES1   0.0000
   176 C12    -31.7856  23.4401 -38.3017   C.2       1 RES1   0.0000
   177 H12A   -32.3821  23.1684 -37.6144   H         1 RES1   0.0000
   178 C13    -30.8241  24.3873 -37.9975   C.2       1 RES1   0.0000
   179 H13A   -30.6708  24.6396 -37.0957   H         1 RES1   0.0000
   180 C14    -30.1047  24.9521 -38.9945   C.2       1 RES1   0.0000
   181 C15    -30.2802  24.4300 -40.3087   C.2       1 RES1   0.0000
   182 H15A   -29.7704  24.7716 -41.0345   H         1 RES1   0.0000
   183 C16    -31.2158  23.4033 -40.5177   C.2       1 RES1   0.0000
   184 H16A   -31.3494  23.0675 -41.3956   H         1 RES1   0.0000
   185 C17    -29.1618  26.1244 -38.8186   C.2       1 RES1   0.0000
   186 C18    -38.7230  22.8695 -40.9539   C.2       1 RES1   0.0000
   187 C19    -39.3586  23.3994 -39.8725   C.2       1 RES1   0.0000
   188 H19A   -39.1909  23.0287 -39.0147   H         1 RES1   0.0000
   189 C20    -40.3127  24.5426 -39.9935   C.2       1 RES1   0.0000
   190 H20A   -40.7334  24.9482 -39.2438   H         1 RES1   0.0000
   191 C21    -40.5160  24.9463 -41.2545   C.2       1 RES1   0.0000
   192 C22    -39.9272  24.3659 -42.3597   C.2       1 RES1   0.0000
   193 H22A   -40.1179  24.6609 -43.2413   H         1 RES1   0.0000
   194 C23    -39.0376  23.3295 -42.1104   C.2       1 RES1   0.0000
   195 H23A   -38.6280  22.8831 -42.8546   H         1 RES1   0.0000
   196 C24    -41.4110  26.1069 -41.3938   C.2       1 RES1   0.0000
   197 O1W    -42.9746   9.7044 -45.8220   O.3       1 RES1   0.0000
   198 Cu2    -44.5528   9.7044 -36.6576   Cu        1 RES1   0.0000
   199 Cu2    -44.5528  29.1133 -36.6576   Cu        1 RES1   0.0000
   200 Cu2    -27.5976  29.1133 -36.6576   Cu        1 RES1   0.0000
   201 Cu3    -29.0257  29.1133 -29.8320   Cu        1 RES1   0.0000
   202 Cu3    -43.1248  29.1133 -43.4833   Cu        1 RES1   0.0000
   203 Cu3    -29.3259   9.7044 -25.1545   Cu        1 RES1   0.0000
   204 Cu4    -45.3152   9.7044 -33.2153   Cu        1 RES1   0.0000
   205 Cu4    -45.3152  29.1133 -33.2153   Cu        1 RES1   0.0000
   206 Cu4    -28.3600  29.1133 -33.2153   Cu        1 RES1   0.0000
   207 Cu4    -43.7905  29.1133 -40.0999   Cu        1 RES1   0.0000
   208 Cu4    -26.8353   9.7044 -40.0999   Cu        1 RES1   0.0000
   209 Cu4    -26.8353  29.1133 -40.0999   Cu        1 RES1   0.0000
   210 N5     -27.2393  11.0844 -34.0714   N.3       1 RES1   0.0000
   211 N5     -44.9111  11.0844 -39.2438   N.3       1 RES1   0.0000
   212 N5     -44.9111   8.3245 -39.2438   N.3       1 RES1   0.0000
   213 N5     -27.2393   8.3245 -34.0714   N.3       1 RES1   0.0000
   214 N6     -27.0102  11.0980 -35.4021   N.3       1 RES1   0.0000
   215 N6     -28.1851   8.3109 -37.9131   N.3       1 RES1   0.0000
   216 N6     -27.0102   8.3109 -35.4021   N.3       1 RES1   0.0000
   217 N9     -42.7737   8.3303 -41.0125   N.3       1 RES1   0.0000
   218 N9     -29.3768   8.3303 -32.3027   N.3       1 RES1   0.0000
   219 N10    -42.5085   8.3167 -42.3066   N.3       1 RES1   0.0000
   220 N10    -29.6420   8.3167 -31.0087   N.3       1 RES1   0.0000
   221 Cl2    -25.3964   9.7044 -37.9700   Cl        1 RES1   0.0000
   222 Cu5?   -35.7073   9.7044 -27.0185   Cu        2 RES2   0.0000
   223 N12A?  -35.4986  10.8088 -28.7231   N.3       3 RES3   0.0000
   224 N12?   -35.9265   8.5904 -25.3322   N.3       4 RES4   0.0000
   225 N13A?  -35.8256  11.3969 -25.8986   N.3       5 RES5   0.0000
   226 N13?   -35.4932   7.9557 -28.0651   N.3       6 RES6   0.0000
   227 N14A?  -35.8686  19.4089 -29.2033   N.3       7 RES7   0.0000
   228 N14?   -34.4003   0.0000 -24.8905   N.3       8 RES8   0.0000
   229 N15A?  -35.3908  20.6938 -29.3096   N.3       9 RES9   0.0000
   230 N15?   -34.8193  -1.2946 -24.7219   N.3      10 RES10   0.0000
   231 N16A?  -34.1061  20.7035 -28.8239   N.3      11 RES11   0.0000
   232 N16?   -36.1909  -1.2965 -24.8502   N.3      12 RES12   0.0000
   233 N17A?  -33.8035  19.4089 -28.4646   N.3      13 RES13   0.0000
   234 H17A?  -33.0172  19.1275 -28.1274   H        14 RES14   0.0000
   235 N17?   -36.5941   0.0000 -25.1086   N.3      15 RES15   0.0000
   236 H17B?  -37.4420   0.2853 -25.2058   H        16 RES16   0.0000
   237 N18A?  -37.8806  11.9112 -17.5297   N.3      17 RES17   0.0000
   238 H18A?  -38.6621  12.0704 -17.9439   H        18 RES18   0.0000
   239 N18?   -34.7004   7.6277 -36.6759   N.3      19 RES19   0.0000
   240 H18B?  -35.5442   7.3696 -36.5018   H        20 RES20   0.0000
   241 N19A?  -37.6468  12.0005 -16.1697   N.3      21 RES21   0.0000
   242 N19?   -34.0646   7.5695 -37.8966   N.3      22 RES22   0.0000
   243 N20A?  -36.3603  11.5716 -15.9314   N.3      23 RES23   0.0000
   244 N20?   -32.8201   8.1517 -37.7390   N.3      24 RES24   0.0000
   245 N21A?  -35.7469  11.3561 -17.1594   N.3      25 RES25   0.0000
   246 N21?   -32.6640   8.5205 -36.4010   N.3      26 RES26   0.0000
   247 C25A?  -35.3003  10.2984 -30.0024   C.3      27 RES27   0.0000
   248 C25?   -36.0427   9.0931 -24.0474   C.3      28 RES28   0.0000
   249 C26A?  -35.1713  11.3678 -30.8694   C.3      29 RES29   0.0000
   250 H26A?  -35.0533  11.3115 -31.8206   H        30 RES30   0.0000
   251 C26?   -36.1563   8.0198 -23.1804   C.3      31 RES31   0.0000
   252 H26B?  -36.3053   8.1110 -22.2365   H        32 RES32   0.0000
   253 C27A?  -35.3333  12.5323 -30.1454   C.3      33 RES33   0.0000
   254 H27A?  -35.3453  13.4251 -30.4991   H        34 RES34   0.0000
   255 C27?   -36.1640   6.8649 -23.9136   C.3      35 RES35   0.0000
   256 H27B?  -36.3059   5.9876 -23.5525   H        36 RES36   0.0000
   257 C28A?  -35.4923  12.1791 -28.8184   C.3      37 RES37   0.0000
   258 C28?   -35.9881   7.2259 -25.2406   C.3      38 RES38   0.0000
   259 C29A?  -35.6418  13.0952 -27.7535   C.3      39 RES39   0.0000
   260 C29?   -35.8636   6.2710 -26.2688   C.3      40 RES40   0.0000
   261 C30A?  -35.4106  14.5276 -27.9441   C.3      41 RES41   0.0000
   262 C30?   -35.6761   4.8580 -25.9793   C.3      42 RES42   0.0000
   263 C31A?  -34.3468  15.2496 -27.4657   C.3      43 RES43   0.0000
   264 H31A?  -33.6745  14.7993 -26.9488   H        44 RES44   0.0000
   265 C31?   -36.8251   4.1884 -25.6768   C.3      45 RES45   0.0000
   266 H31B?  -37.6595   4.6620 -25.6860   H        46 RES46   0.0000
   267 C32A?  -34.2072  16.5868 -27.7150   C.3      47 RES47   0.0000
   268 H32A?  -33.4737  17.0818 -27.3374   H        48 RES48   0.0000
   269 C32?   -36.8142   2.8492 -25.4056   C.3      49 RES49   0.0000
   270 H32B?  -37.6300   2.3912 -25.1874   H        50 RES50   0.0000
   271 C33A?  -35.1169  17.2196 -28.5270   C.3      51 RES51   0.0000
   272 C33?   -35.6287   2.1622 -25.4569   C.3      52 RES52   0.0000
   273 C34A?  -36.2131  16.5247 -28.9650   C.3      53 RES53   0.0000
   274 H34A?  -36.9143  16.9847 -29.4324   H        54 RES54   0.0000
   275 C34?   -34.4855   2.8046 -25.8528   C.3      55 RES55   0.0000
   276 H34B?  -33.6507   2.3291 -25.8564   H        56 RES56   0.0000
   277 C35A?  -36.3067  15.1700 -28.7561   C.3      57 RES57   0.0000
   278 H35A?  -37.0209  14.6692 -29.1575   H        58 RES58   0.0000
   279 C35?   -34.5219   4.1399 -26.1534   C.3      59 RES59   0.0000
   280 H35B?  -33.7220   4.5844 -26.4466   H        60 RES60   0.0000
   281 C36A?  -35.7023  12.6915 -26.3587   C.3      61 RES61   0.0000
   282 C36?   -35.5503   6.6475 -27.6252   C.3      62 RES62   0.0000
   283 C37A?  -35.6444  13.5358 -25.2571   C.3      63 RES63   0.0000
   284 H37A?  -35.5691  14.4926 -25.2809   H        64 RES64   0.0000
   285 C37?   -35.2504   5.7974 -28.6773   C.3      65 RES65   0.0000
   286 H37B?  -35.2129   4.8386 -28.6296   H        66 RES66   0.0000
   287 C38?   -34.9878   6.5835 -29.7788   C.3      67 RES67   0.0000
   288 H38A?  -34.7303   6.2555 -30.6439   H        68 RES68   0.0000
   289 C38A?  -35.7257  12.7672 -24.1060   C.3      69 RES69   0.0000
   290 H38B?  -35.6781  13.0816 -23.2006   H        70 RES70   0.0000
   291 C39A?  -35.8307  11.4513 -24.5203   C.3      71 RES71   0.0000
   292 C39?   -35.1511   7.9014 -29.3921   C.3      72 RES72   0.0000
   293 C40A?  -36.0066  10.4187 -23.6662   C.3      73 RES73   0.0000
   294 C40?   -34.9206   8.9863 -30.1692   C.3      74 RES74   0.0000
   295 C41A?  -34.8852  18.6325 -28.7011   C.3      75 RES75   0.0000
   296 C41?   -35.4784   0.7608 -25.1874   C.3      76 RES76   0.0000
   297 C42A?  -36.1715  10.7021 -22.2457   C.3      77 RES77   0.0000
   298 C43A?  -35.1542  10.4866 -21.3494   C.3      78 RES78   0.0000
   299 H43A?  -34.3240  10.1217 -21.6610   H        79 RES79   0.0000
   300 C44A?  -35.3265  10.7234 -20.0242   C.3      80 RES80   0.0000
   301 H44A?  -34.6641  10.4148 -19.4010   H        81 RES81   0.0000
   302 C45A?  -36.5600  11.1485 -19.5367   C.3      82 RES82   0.0000
   303 C46A?  -37.5559  11.3872 -20.4586   C.3      83 RES83   0.0000
   304 H46A?  -38.3861  11.7560 -20.1470   H        84 RES84   0.0000
   305 C47A?  -37.3537  11.2300 -21.8003   C.3      85 RES85   0.0000
   306 C48A?  -36.7085  11.5367 -18.1327   C.3      86 RES86   0.0000
   307 C42?   -34.7174   8.7030 -31.7235   C.3      87 RES87   0.0000
   308 C43?   -35.6249   8.0780 -32.5281   C.3      88 RES88   0.0000
   309 C47?   -33.5070   9.1241 -32.2147   C.3      89 RES89   0.0000
   310 C44?   -35.3566   7.9227 -33.8698   C.3      90 RES90   0.0000
   311 C45?   -34.1187   8.2682 -34.3335   C.3      91 RES91   0.0000
   312 C46?   -33.2440   8.9883 -33.5545   C.3      92 RES92   0.0000
   313 C48?   -33.8238   8.1711 -35.7503   C.3      93 RES93   0.0000
   314 H1WA?  -28.8395  10.4886 -27.1523   H        94 RES94   0.0000
@<TRIPOS>BOND
     1     1     4    1
     2     1   203    1
     3     2     6    1
     4     2     7    1
     5     2     8    1
     6     2    55    1
     7     3    18    1
     8     3   108    1
     9     3   214    1
    10     3   215    1
    11     3   216    1
    12     3   221    1
    13     4    15    1
    14     4    17    1
    15     4   220    1
    16     5    14    1
    17     5    17    1
    18     5    18    1
    19     5   210    1
    20     5   213    1
    21     5   218    1
    22     6    21    1
    23     6    66    2
    24     7    23    1
    25     7    28    1
    26     8    30    1
    27     8    75    2
    28     9    10    2
    29     9    43    1
    30    10    11    1
    31    10   204    1
    32    11    12    1
    33    11   198    1
    34    12    43    2
    35    13    14    1
    36    13    54    2
    37    14    15    1
    38    15    16    2
    39    16    54    1
    40    19    20    1
    41    19    21    1
    42    19    64    2
    43    21    22    2
    44    22    23    1
    45    22    33    1
    46    23    24    2
    47    24    25    1
    48    24    26    1
    49    26    27    1
    50    26    28    2
    51    28    29    1
    52    29    30    2
    53    29    44    1
    54    30    31    1
    55    31    32    1
    56    31    76    2
    57    33    34    2
    58    33    41    1
    59    34    35    1
    60    34    36    1
    61    36    37    1
    62    36    38    2
    63    38    39    1
    64    38    43    1
    65    39    40    1
    66    39    41    2
    67    41    42    1
    68    44    45    2
    69    44    52    1
    70    45    46    1
    71    45    47    1
    72    47    48    1
    73    47    49    2
    74    49    50    1
    75    49    54    1
    76    50    51    1
    77    50    52    2
    78    52    53    1
    79    55    68    1
    80    55    73    1
    81    56    57    2
    82    56    88    1
    83    57    58    1
    84    57   205    1
    85    58    59    1
    86    58   199    1
    87    59    88    2
    88    60    61    1
    89    60    99    2
    90    61    62    1
    91    61   206    1
    92    62    63    2
    93    62   201    1
    94    63    99    1
    95    64    65    1
    96    64    66    1
    97    66    67    1
    98    67    68    2
    99    67    78    1
   100    68    69    1
   101    69    70    1
   102    69    71    2
   103    71    72    1
   104    71    73    1
   105    73    74    2
   106    74    75    1
   107    74    89    1
   108    75    76    1
   109    76    77    1
   110    78    79    2
   111    78    86    1
   112    79    80    1
   113    79    81    1
   114    81    82    1
   115    81    83    2
   116    83    84    1
   117    83    88    1
   118    84    85    1
   119    84    86    2
   120    86    87    1
   121    89    90    2
   122    89    97    1
   123    90    91    1
   124    90    92    1
   125    92    93    1
   126    92    94    2
   127    94    95    1
   128    94    99    1
   129    95    96    1
   130    95    97    2
   131    97    98    1
   132   100   103    1
   133   100   104    1
   134   100   105    1
   135   100   152    1
   136   101   112    1
   137   101   114    1
   138   101   197    1
   139   101   219    1
   140   102   111    1
   141   102   114    1
   142   102   115    1
   143   102   211    1
   144   102   212    1
   145   102   217    1
   146   103   118    1
   147   103   163    2
   148   104   120    1
   149   104   125    1
   150   105   127    1
   151   105   172    2
   152   106   107    2
   153   106   140    1
   154   107   108    1
   155   107   208    1
   156   108   109    1
   157   109   140    2
   158   110   111    1
   159   110   151    2
   160   111   112    1
   161   112   113    2
   162   113   151    1
   163   115   198    1
   164   116   117    1
   165   116   118    1
   166   116   161    2
   167   118   119    2
   168   119   120    1
   169   119   130    1
   170   120   121    2
   171   121   122    1
   172   121   123    1
   173   123   124    1
   174   123   125    2
   175   125   126    1
   176   126   127    2
   177   126   141    1
   178   127   128    1
   179   128   129    1
   180   128   173    2
   181   130   131    2
   182   130   138    1
   183   131   132    1
   184   131   133    1
   185   133   134    1
   186   133   135    2
   187   135   136    1
   188   135   140    1
   189   136   137    1
   190   136   138    2
   191   138   139    1
   192   141   142    2
   193   141   149    1
   194   142   143    1
   195   142   144    1
   196   144   145    1
   197   144   146    2
   198   146   147    1
   199   146   151    1
   200   147   148    1
   201   147   149    2
   202   149   150    1
   203   152   165    1
   204   152   170    1
   205   153   154    2
   206   153   185    1
   207   154   155    1
   208   154   209    1
   209   155   156    1
   210   155   200    1
   211   156   185    2
   212   157   158    1
   213   157   196    2
   214   158   159    1
   215   158   207    1
   216   159   160    2
   217   159   202    1
   218   160   196    1
   219   161   162    1
   220   161   163    1
   221   163   164    1
   222   164   165    2
   223   164   175    1
   224   165   166    1
   225   166   167    1
   226   166   168    2
   227   168   169    1
   228   168   170    1
   229   170   171    2
   230   171   172    1
   231   171   186    1
   232   172   173    1
   233   173   174    1
   234   175   176    2
   235   175   183    1
   236   176   177    1
   237   176   178    1
   238   178   179    1
   239   178   180    2
   240   180   181    1
   241   180   185    1
   242   181   182    1
   243   181   183    2
   244   183   184    1
   245   186   187    2
   246   186   194    1
   247   187   188    1
   248   187   189    1
   249   189   190    1
   250   189   191    2
   251   191   192    1
   252   191   196    1
   253   192   193    1
   254   192   194    2
   255   194   195    1
   256   208   221    1
   257   210   214    1
   258   213   216    1
   259   217   219    1
   260   218   220    1
@<TRIPOS>SUBSTRUCTURE
     1 RES1        1 GROUP             0 ****  ****    0  
     2 RES2      222 GROUP             0 ****  ****    0  
     3 RES3      223 GROUP             0 ****  ****    0  
     4 RES4      224 GROUP             0 ****  ****    0  
     5 RES5      225 GROUP             0 ****  ****    0  
     6 RES6      226 GROUP             0 ****  ****    0  
     7 RES7      227 GROUP             0 ****  ****    0  
     8 RES8      228 GROUP             0 ****  ****    0  
     9 RES9      229 GROUP             0 ****  ****    0  
    10 RES10     230 GROUP             0 ****  ****    0  
    11 RES11     231 GROUP             0 ****  ****    0  
    12 RES12     232 GROUP             0 ****  ****    0  
    13 RES13     233 GROUP             0 ****  ****    0  
    14 RES14     234 GROUP             0 ****  ****    0  
    15 RES15     235 GROUP             0 ****  ****    0  
    16 RES16     236 GROUP             0 ****  ****    0  
    17 RES17     237 GROUP             0 ****  ****    0  
    18 RES18     238 GROUP             0 ****  ****    0  
    19 RES19     239 GROUP             0 ****  ****    0  
    20 RES20     240 GROUP             0 ****  ****    0  
    21 RES21     241 GROUP             0 ****  ****    0  
    22 RES22     242 GROUP             0 ****  ****    0  
    23 RES23     243 GROUP             0 ****  ****    0  
    24 RES24     244 GROUP             0 ****  ****    0  
    25 RES25     245 GROUP             0 ****  ****    0  
    26 RES26     246 GROUP             0 ****  ****    0  
    27 RES27     247 GROUP             0 ****  ****    0  
    28 RES28     248 GROUP             0 ****  ****    0  
    29 RES29     249 GROUP             0 ****  ****    0  
    30 RES30     250 GROUP             0 ****  ****    0  
    31 RES31     251 GROUP             0 ****  ****    0  
    32 RES32     252 GROUP             0 ****  ****    0  
    33 RES33     253 GROUP             0 ****  ****    0  
    34 RES34     254 GROUP             0 ****  ****    0  
    35 RES35     255 GROUP             0 ****  ****    0  
    36 RES36     256 GROUP             0 ****  ****    0  
    37 RES37     257 GROUP             0 ****  ****    0  
    38 RES38     258 GROUP             0 ****  ****    0  
    39 RES39     259 GROUP             0 ****  ****    0  
    40 RES40     260 GROUP             0 ****  ****    0  
    41 RES41     261 GROUP             0 ****  ****    0  
    42 RES42     262 GROUP             0 ****  ****    0  
    43 RES43     263 GROUP             0 ****  ****    0  
    44 RES44     264 GROUP             0 ****  ****    0  
    45 RES45     265 GROUP             0 ****  ****    0  
    46 RES46     266 GROUP             0 ****  ****    0  
    47 RES47     267 GROUP             0 ****  ****    0  
    48 RES48     268 GROUP             0 ****  ****    0  
    49 RES49     269 GROUP             0 ****  ****    0  
    50 RES50     270 GROUP             0 ****  ****    0  
    51 RES51     271 GROUP             0 ****  ****    0  
    52 RES52     272 GROUP             0 ****  ****    0  
    53 RES53     273 GROUP             0 ****  ****    0  
    54 RES54     274 GROUP             0 ****  ****    0  
    55 RES55     275 GROUP             0 ****  ****    0  
    56 RES56     276 GROUP             0 ****  ****    0  
    57 RES57     277 GROUP             0 ****  ****    0  
    58 RES58     278 GROUP             0 ****  ****    0  
    59 RES59     279 GROUP             0 ****  ****    0  
    60 RES60     280 GROUP             0 ****  ****    0  
    61 RES61     281 GROUP             0 ****  ****    0  
    62 RES62     282 GROUP             0 ****  ****    0  
    63 RES63     283 GROUP             0 ****  ****    0  
    64 RES64     284 GROUP             0 ****  ****    0  
    65 RES65     285 GROUP             0 ****  ****    0  
    66 RES66     286 GROUP             0 ****  ****    0  
    67 RES67     287 GROUP             0 ****  ****    0  
    68 RES68     288 GROUP             0 ****  ****    0  
    69 RES69     289 GROUP             0 ****  ****    0  
    70 RES70     290 GROUP             0 ****  ****    0  
    71 RES71     291 GROUP             0 ****  ****    0  
    72 RES72     292 GROUP             0 ****  ****    0  
    73 RES73     293 GROUP             0 ****  ****    0  
    74 RES74     294 GROUP             0 ****  ****    0  
    75 RES75     295 GROUP             0 ****  ****    0  
    76 RES76     296 GROUP             0 ****  ****    0  
    77 RES77     297 GROUP             0 ****  ****    0  
    78 RES78     298 GROUP             0 ****  ****    0  
    79 RES79     299 GROUP             0 ****  ****    0  
    80 RES80     300 GROUP             0 ****  ****    0  
    81 RES81     301 GROUP             0 ****  ****    0  
    82 RES82     302 GROUP             0 ****  ****    0  
    83 RES83     303 GROUP             0 ****  ****    0  
    84 RES84     304 GROUP             0 ****  ****    0  
    85 RES85     305 GROUP             0 ****  ****    0  
    86 RES86     306 GROUP             0 ****  ****    0  
    87 RES87     307 GROUP             0 ****  ****    0  
    88 RES88     308 GROUP             0 ****  ****    0  
    89 RES89     309 GROUP             0 ****  ****    0  
    90 RES90     310 GROUP             0 ****  ****    0  
    91 RES91     311 GROUP             0 ****  ****    0  
    92 RES92     312 GROUP             0 ****  ****    0  
    93 RES93     313 GROUP             0 ****  ****    0  
    94 RES94     314 GROUP             0 ****  ****    0  
@<TRIPOS>CRYSIN
   16.9552   19.4089   18.5986   90.0000   99.7710   90.0000    10     1
