####################################################################### 
# 
# This file contains crystal structure data downloaded from the 
# Cambridge Structural Database (CSD) hosted by the Cambridge 
# Crystallographic Data Centre (CCDC).
# 
# Full information about CCDC data access policies and citation 
# guidelines are available at http://www.ccdc.cam.ac.uk/access/V1 
# 
# Audit and citation data items may have been added by the CCDC. 
# Please retain this information to preserve the provenance of 
# this file and to allow appropriate attribution of the data. 
# 
#######################################################################
@<TRIPOS>MOLECULE
ERAMES
   201   238     1     0     0
SMALL
NO_CHARGES
****
Generated from the CSD

@<TRIPOS>ATOM
     1 Zr1      1.7451  12.4489  14.3331   Zr        1 RES1   0.0000
     2 Zr2     -0.0001  11.4126  11.4936   Zr        1 RES1   0.0000
     3 O6      -0.0012  11.2772  13.7273   O.3       1 RES1   0.0000
     4 O7       1.4882  12.5972  12.2610   O.3       1 RES1   0.0000
     5 O1       1.3868   9.7653  12.0013   O.co2     1 RES1   0.0000
     6 O008     9.1644   6.5923   5.1758   O.co2     1 RES1   0.0000
     7 O4      -0.0012  13.4571  10.4761   O.3       1 RES1   0.0000
     8 O3      -1.3343  11.0511   9.6993   O.3       1 RES1   0.0000
     9 N1       5.9760   4.7151  11.1394   N.2       1 RES1   0.0000
    10 C2       2.7887   8.2010  13.0487   C.2       1 RES1   0.0000
    11 C1       2.2188   9.6361  12.9243   C.2       1 RES1   0.0000
    12 C15      8.7670   5.0603   6.9040   C.2       1 RES1   0.0000
    13 C16      9.4010   5.4276   5.5861   C.2       1 RES1   0.0000
    14 C3       3.4704   7.8074  14.1703   C.2       1 RES1   0.0000
    15 H3       3.5334   8.4170  14.8707   H         1 RES1   0.0000
    16 C5       4.0158   5.7082  13.2211   C.2       1 RES1   0.0000
    17 C7       2.7013   7.2422  12.0275   C.2       1 RES1   0.0000
    18 H7       2.1885   7.4199  11.2725   H         1 RES1   0.0000
    19 C11      6.9083   3.9885  10.5001   C.2       1 RES1   0.0000
    20 C10      5.5937   4.0531  12.2872   C.2       1 RES1   0.0000
    21 C6       3.3481   6.0776  12.1279   C.2       1 RES1   0.0000
    22 H6       3.3318   5.4963  11.4013   H         1 RES1   0.0000
    23 C14      7.8452   5.8979   7.4452   C.2       1 RES1   0.0000
    24 H14      7.6354   6.6973   7.0197   H         1 RES1   0.0000
    25 C4       4.0776   6.5620  14.3427   C.2       1 RES1   0.0000
    26 H4       4.4936   6.3138  15.1370   H         1 RES1   0.0000
    27 C12      7.4828   4.3215   9.1996   C.2       1 RES1   0.0000
    28 C8       4.7407   4.4164  13.2909   C.2       1 RES1   0.0000
    29 C13      7.2136   5.5548   8.6431   C.2       1 RES1   0.0000
    30 H13      6.6239   6.1442   9.0577   H         1 RES1   0.0000
    31 C9       4.6300   3.5141  14.4234   C.2       1 RES1   0.0000
    32 H9       4.0927   3.7422  15.1500   H         1 RES1   0.0000
    33 O2      -0.0012  13.4571  14.8206   O.3       1 RES1   0.0000
    34 O5       2.5393  10.4657  13.7993   O.co2     1 RES1   0.0000
    35 O1       9.1504  -3.6817  12.0013   O.co2     1 RES1   0.0000
    36 O008    10.2913   4.6404   5.1758   O.co2     1 RES1   0.0000
    37 N1       7.0714   2.8178  11.1394   N.2       1 RES1   0.0000
    38 C2       8.4966  -1.6854  13.0487   C.2       1 RES1   0.0000
    39 C1       9.4546  -2.8965  12.9243   C.2       1 RES1   0.0000
    40 C3       8.4966  -0.8982  14.1703   C.2       1 RES1   0.0000
    41 H3       9.0560  -1.1485  14.8707   H         1 RES1   0.0000
    42 C5       6.9514   0.6237  13.2211   C.2       1 RES1   0.0000
    43 C7       7.6226  -1.2817  12.0275   C.2       1 RES1   0.0000
    44 H7       7.5201  -1.8146  11.2725   H         1 RES1   0.0000
    45 C10      6.3069   2.8178  12.2872   C.2       1 RES1   0.0000
    46 C6       6.9374  -0.1393  12.1279   C.2       1 RES1   0.0000
    47 H6       6.4258   0.1373  11.4013   H         1 RES1   0.0000
    48 C14      9.0304   3.8452   7.4452   C.2       1 RES1   0.0000
    49 H14      9.6177   3.2639   7.0197   H         1 RES1   0.0000
    50 C4       7.7217   0.2503  14.3427   C.2       1 RES1   0.0000
    51 H4       7.7147   0.7347  15.1370   H         1 RES1   0.0000
    52 C8       6.1951   1.8974  13.2909   C.2       1 RES1   0.0000
    53 C13      8.4174   3.4697   8.6431   C.2       1 RES1   0.0000
    54 H13      8.6330   2.6644   9.0577   H         1 RES1   0.0000
    55 C9       5.3583   2.2526  14.4234   C.2       1 RES1   0.0000
    56 H9       5.2872   1.6733  15.1500   H         1 RES1   0.0000
    57 O5      10.3332  -3.0337  13.7993   O.co2     1 RES1   0.0000
    58 Zr2     -9.8835  -5.7064  11.4936   Zr        1 RES1   0.0000
    59 O6      -9.7657  -5.6396  13.7273   O.3       1 RES1   0.0000
    60 O1      -9.1504  -3.6817  12.0013   O.co2     1 RES1   0.0000
    61 O008   -10.2913   4.6404   5.1758   O.co2     1 RES1   0.0000
    62 O3      -8.9034  -6.6811   9.6993   O.3       1 RES1   0.0000
    63 N1      -7.0714   2.8178  11.1394   N.2       1 RES1   0.0000
    64 C2      -8.4966  -1.6854  13.0487   C.2       1 RES1   0.0000
    65 C1      -9.4546  -2.8965  12.9243   C.2       1 RES1   0.0000
    66 C15     -8.7658   5.0623   6.9040   C.2       1 RES1   0.0000
    67 C16     -9.4010   5.4276   5.5861   C.2       1 RES1   0.0000
    68 C3      -8.4966  -0.8982  14.1703   C.2       1 RES1   0.0000
    69 H3      -9.0560  -1.1485  14.8707   H         1 RES1   0.0000
    70 C5      -6.9514   0.6237  13.2211   C.2       1 RES1   0.0000
    71 C7      -7.6226  -1.2817  12.0275   C.2       1 RES1   0.0000
    72 H7      -7.5201  -1.8146  11.2725   H         1 RES1   0.0000
    73 C11     -6.9083   3.9885  10.5001   C.2       1 RES1   0.0000
    74 C10     -6.3069   2.8178  12.2872   C.2       1 RES1   0.0000
    75 C6      -6.9374  -0.1393  12.1279   C.2       1 RES1   0.0000
    76 H6      -6.4258   0.1373  11.4013   H         1 RES1   0.0000
    77 C14     -9.0304   3.8452   7.4452   C.2       1 RES1   0.0000
    78 H14     -9.6177   3.2639   7.0197   H         1 RES1   0.0000
    79 C4      -7.7217   0.2503  14.3427   C.2       1 RES1   0.0000
    80 H4      -7.7147   0.7347  15.1370   H         1 RES1   0.0000
    81 C12     -7.4839   4.3195   9.1996   C.2       1 RES1   0.0000
    82 C8      -6.1951   1.8974  13.2909   C.2       1 RES1   0.0000
    83 C13     -8.4174   3.4697   8.6431   C.2       1 RES1   0.0000
    84 H13     -8.6330   2.6644   9.0577   H         1 RES1   0.0000
    85 C9      -5.3583   2.2526  14.4234   C.2       1 RES1   0.0000
    86 H9      -5.2872   1.6733  15.1500   H         1 RES1   0.0000
    87 O5     -10.3332  -3.0337  13.7993   O.co2     1 RES1   0.0000
    88 O1      -1.3868   9.7653  12.0013   O.co2     1 RES1   0.0000
    89 O008    -9.1644   6.5923   5.1758   O.co2     1 RES1   0.0000
    90 N1      -5.9760   4.7151  11.1394   N.2       1 RES1   0.0000
    91 C2      -2.7887   8.2010  13.0487   C.2       1 RES1   0.0000
    92 C1      -2.2188   9.6361  12.9243   C.2       1 RES1   0.0000
    93 C3      -3.4704   7.8074  14.1703   C.2       1 RES1   0.0000
    94 H3      -3.5334   8.4170  14.8707   H         1 RES1   0.0000
    95 C5      -4.0158   5.7082  13.2211   C.2       1 RES1   0.0000
    96 C7      -2.7013   7.2422  12.0275   C.2       1 RES1   0.0000
    97 H7      -2.1885   7.4199  11.2725   H         1 RES1   0.0000
    98 C10     -5.5937   4.0531  12.2872   C.2       1 RES1   0.0000
    99 C6      -3.3481   6.0776  12.1279   C.2       1 RES1   0.0000
   100 H6      -3.3318   5.4963  11.4013   H         1 RES1   0.0000
   101 C14     -7.8452   5.8979   7.4452   C.2       1 RES1   0.0000
   102 H14     -7.6354   6.6973   7.0197   H         1 RES1   0.0000
   103 C4      -4.0776   6.5620  14.3427   C.2       1 RES1   0.0000
   104 H4      -4.4936   6.3138  15.1370   H         1 RES1   0.0000
   105 C8      -4.7407   4.4164  13.2909   C.2       1 RES1   0.0000
   106 C13     -7.2136   5.5548   8.6431   C.2       1 RES1   0.0000
   107 H13     -6.6239   6.1442   9.0577   H         1 RES1   0.0000
   108 C9      -4.6300   3.5141  14.4234   C.2       1 RES1   0.0000
   109 H9      -4.0927   3.7422  15.1500   H         1 RES1   0.0000
   110 O5      -2.5393  10.4657  13.7993   O.co2     1 RES1   0.0000
   111 Zr2      9.8837  -5.7062  11.4936   Zr        1 RES1   0.0000
   112 O6       9.7669  -5.6376  13.7273   O.3       1 RES1   0.0000
   113 O1       7.7636  -6.0836  12.0013   O.co2     1 RES1   0.0000
   114 O008     1.1269 -11.2327   5.1758   O.co2     1 RES1   0.0000
   115 O3      10.2377  -4.3700   9.6993   O.3       1 RES1   0.0000
   116 N1       1.0954  -7.5329  11.1394   N.2       1 RES1   0.0000
   117 C2       5.7079  -6.5156  13.0487   C.2       1 RES1   0.0000
   118 C1       7.2357  -6.7396  12.9243   C.2       1 RES1   0.0000
   119 C15     -0.0012 -10.1226   6.9040   C.2       1 RES1   0.0000
   120 C16      0.0000 -10.8553   5.5861   C.2       1 RES1   0.0000
   121 C3       5.0262  -6.9092  14.1703   C.2       1 RES1   0.0000
   122 H3       5.5226  -7.2685  14.8707   H         1 RES1   0.0000
   123 C5       2.9355  -6.3319  13.2211   C.2       1 RES1   0.0000
   124 C7       4.9213  -5.9605  12.0275   C.2       1 RES1   0.0000
   125 H7       5.3315  -5.6053  11.2725   H         1 RES1   0.0000
   126 C11      0.0000  -7.9770  10.5001   C.2       1 RES1   0.0000
   127 C10      0.7132  -6.8708  12.2872   C.2       1 RES1   0.0000
   128 C6       3.5893  -5.9383  12.1279   C.2       1 RES1   0.0000
   129 H6       3.0940  -5.6335  11.4013   H         1 RES1   0.0000
   130 C14      1.1852  -9.7431   7.4452   C.2       1 RES1   0.0000
   131 H14      1.9823  -9.9611   7.0197   H         1 RES1   0.0000
   132 C4       3.6441  -6.8123  14.3427   C.2       1 RES1   0.0000
   133 H4       3.2211  -7.0485  15.1370   H         1 RES1   0.0000
   134 C12      0.0012  -8.6410   9.1996   C.2       1 RES1   0.0000
   135 C8       1.4544  -6.3138  13.2909   C.2       1 RES1   0.0000
   136 C13      1.2038  -9.0245   8.6431   C.2       1 RES1   0.0000
   137 H13      2.0091  -8.8086   9.0577   H         1 RES1   0.0000
   138 C9       0.7283  -5.7667  14.4234   C.2       1 RES1   0.0000
   139 H9       1.1945  -5.4155  15.1500   H         1 RES1   0.0000
   140 O5       7.7939  -7.4320  13.7993   O.co2     1 RES1   0.0000
   141 O1      -7.7636  -6.0836  12.0013   O.co2     1 RES1   0.0000
   142 O008    -1.1269 -11.2327   5.1758   O.co2     1 RES1   0.0000
   143 N1      -1.0954  -7.5329  11.1394   N.2       1 RES1   0.0000
   144 C2      -5.7079  -6.5156  13.0487   C.2       1 RES1   0.0000
   145 C1      -7.2357  -6.7396  12.9243   C.2       1 RES1   0.0000
   146 C3      -5.0262  -6.9092  14.1703   C.2       1 RES1   0.0000
   147 H3      -5.5226  -7.2685  14.8707   H         1 RES1   0.0000
   148 C5      -2.9355  -6.3319  13.2211   C.2       1 RES1   0.0000
   149 C7      -4.9213  -5.9605  12.0275   C.2       1 RES1   0.0000
   150 H7      -5.3315  -5.6053  11.2725   H         1 RES1   0.0000
   151 C10     -0.7132  -6.8708  12.2872   C.2       1 RES1   0.0000
   152 C6      -3.5893  -5.9383  12.1279   C.2       1 RES1   0.0000
   153 H6      -3.0940  -5.6335  11.4013   H         1 RES1   0.0000
   154 C14     -1.1852  -9.7431   7.4452   C.2       1 RES1   0.0000
   155 H14     -1.9823  -9.9611   7.0197   H         1 RES1   0.0000
   156 C4      -3.6441  -6.8123  14.3427   C.2       1 RES1   0.0000
   157 H4      -3.2211  -7.0485  15.1370   H         1 RES1   0.0000
   158 C8      -1.4544  -6.3138  13.2909   C.2       1 RES1   0.0000
   159 C13     -1.2038  -9.0245   8.6431   C.2       1 RES1   0.0000
   160 H13     -2.0091  -8.8086   9.0577   H         1 RES1   0.0000
   161 C9      -0.7284  -5.7667  14.4234   C.2       1 RES1   0.0000
   162 H9      -1.1945  -5.4155  15.1500   H         1 RES1   0.0000
   163 O5      -7.7939  -7.4320  13.7993   O.co2     1 RES1   0.0000
   164 O3     -10.2377  -4.3700   9.6993   O.3       1 RES1   0.0000
   165 Zr1     -1.7451  12.4489  14.3331   Zr        1 RES1   0.0000
   166 O7      -1.4882  12.5972  12.2610   O.3       1 RES1   0.0000
   167 O3       1.3343  11.0511   9.6993   O.3       1 RES1   0.0000
   168 Zr1     11.6536  -4.7131  14.3331   Zr        1 RES1   0.0000
   169 O7      11.6536  -5.0098  12.2610   O.3       1 RES1   0.0000
   170 O3       8.9034  -6.6811   9.6993   O.3       1 RES1   0.0000
   171 Zr1     -9.9085  -7.7358  14.3331   Zr        1 RES1   0.0000
   172 Zr1    -11.6536  -4.7131  14.3331   Zr        1 RES1   0.0000
   173 Zr1      0.0000  15.4715  14.3331   Zr        1 RES1   0.0000
   174 Zr1      9.9085  -7.7358  14.3331   Zr        1 RES1   0.0000
   175 Zr1     -1.7451 -12.4489   3.4228   Zr        1 RES1   0.0000
   176 Zr1      9.9085   7.7358   3.4228   Zr        1 RES1   0.0000
   177 Zr1    -11.6536   4.7131   3.4228   Zr        1 RES1   0.0000
   178 Zr1     11.6536   4.7131   3.4228   Zr        1 RES1   0.0000
   179 Zr1      1.7451 -12.4489   3.4228   Zr        1 RES1   0.0000
   180 Zr1     -9.9085   7.7358   3.4228   Zr        1 RES1   0.0000
   181 Zr2     13.4237  -5.7064  11.4936   Zr        1 RES1   0.0000
   182 Zr2      1.7701  14.4782  11.4936   Zr        1 RES1   0.0000
   183 Zr2     -1.7699  14.4784  11.4936   Zr        1 RES1   0.0000
   184 O6      13.5415  -5.6396  13.7273   O.3       1 RES1   0.0000
   185 O6       1.8879  14.5450  13.7273   O.3       1 RES1   0.0000
   186 O6      -1.8867  14.5471  13.7273   O.3       1 RES1   0.0000
   187 O7     -10.1654  -7.5874  12.2610   O.3       1 RES1   0.0000
   188 O7     -11.6536  -5.0098  12.2610   O.3       1 RES1   0.0000
   189 O7      10.1654  -7.5874  12.2610   O.3       1 RES1   0.0000
   190 O008     2.4892  13.5923  16.0861   O.3       1 RES1   0.0000
   191 O008    10.2913  -4.6404  16.0861   O.3       1 RES1   0.0000
   192 O008    -1.1269  11.2327  16.0861   O.3       1 RES1   0.0000
   193 O008     1.1269  11.2327  16.0861   O.3       1 RES1   0.0000
   194 O008    -2.4892  13.5923  16.0861   O.3       1 RES1   0.0000
   195 O008    13.0159  -4.6404  16.0861   O.3       1 RES1   0.0000
   196 O4     -11.6548  -6.7275  10.4761   O.3       1 RES1   0.0000
   197 O4      11.6524  -6.7275  10.4761   O.3       1 RES1   0.0000
   198 O2      11.6524  -6.7275  14.8206   O.3       1 RES1   0.0000
   199 O5      12.9740  -3.0337  13.7993   O.3       1 RES1   0.0000
   200 O5      -3.8597  12.7526  13.7993   O.3       1 RES1   0.0000
   201 O5       3.8597  12.7526  13.7993   O.3       1 RES1   0.0000
@<TRIPOS>BOND
     1     1     3    1
     2     1     4    1
     3     1    33    1
     4     1    34    1
     5     1   185    1
     6     1   190    1
     7     1   193    1
     8     1   201    1
     9     2     3    1
    10     2     4    1
    11     2     5    1
    12     2     7    1
    13     2     8    1
    14     2    88    1
    15     2   166    1
    16     2   167    1
    17     3   165    1
    18     4   182    1
    19     5    11   un
    20     6    13   un
    21     6   176    1
    22     7   182    1
    23     7   183    1
    24     9    19    1
    25     9    20    1
    26    10    11    1
    27    10    14    2
    28    10    17    1
    29    11    34   un
    30    12    13    1
    31    12    23    1
    32    12    48    2
    33    13    36   un
    34    14    15    1
    35    14    25    1
    36    16    21    1
    37    16    25    2
    38    16    28    1
    39    17    18    1
    40    17    21    2
    41    19    27    1
    42    19    37    2
    43    20    28    2
    44    20    45    1
    45    21    22    1
    46    23    24    1
    47    23    29    2
    48    25    26    1
    49    27    29    1
    50    27    53    2
    51    28    31    1
    52    29    30    1
    53    31    32    1
    54    31    55    2
    55    33   165    1
    56    33   173    1
    57    35    39   un
    58    35   111    1
    59    36   178    1
    60    37    45    1
    61    38    39    1
    62    38    40    2
    63    38    43    1
    64    39    57   un
    65    40    41    1
    66    40    50    1
    67    42    46    1
    68    42    50    2
    69    42    52    1
    70    43    44    1
    71    43    46    2
    72    45    52    2
    73    46    47    1
    74    48    49    1
    75    48    53    1
    76    50    51    1
    77    52    55    1
    78    53    54    1
    79    55    56    1
    80    57   168    1
    81    58    59    1
    82    58    60    1
    83    58    62    1
    84    58   141    1
    85    58   164    1
    86    58   187    1
    87    58   188    1
    88    58   196    1
    89    59   171    1
    90    59   172    1
    91    60    65   un
    92    61    67   un
    93    61   177    1
    94    63    73    1
    95    63    74    1
    96    64    65    1
    97    64    68    2
    98    64    71    1
    99    65    87   un
   100    66    67    1
   101    66    77    1
   102    66   101    2
   103    67    89   un
   104    68    69    1
   105    68    79    1
   106    70    75    1
   107    70    79    2
   108    70    82    1
   109    71    72    1
   110    71    75    2
   111    73    81    1
   112    73    90    2
   113    74    82    2
   114    74    98    1
   115    75    76    1
   116    77    78    1
   117    77    83    2
   118    79    80    1
   119    81    83    1
   120    81   106    2
   121    82    85    1
   122    83    84    1
   123    85    86    1
   124    85   108    2
   125    87   172    1
   126    88    92   un
   127    89   180    1
   128    90    98    1
   129    91    92    1
   130    91    93    2
   131    91    96    1
   132    92   110   un
   133    93    94    1
   134    93   103    1
   135    95    99    1
   136    95   103    2
   137    95   105    1
   138    96    97    1
   139    96    99    2
   140    98   105    2
   141    99   100    1
   142   101   102    1
   143   101   106    1
   144   103   104    1
   145   105   108    1
   146   106   107    1
   147   108   109    1
   148   110   165    1
   149   111   112    1
   150   111   113    1
   151   111   115    1
   152   111   169    1
   153   111   170    1
   154   111   189    1
   155   111   197    1
   156   112   168    1
   157   112   174    1
   158   113   118   un
   159   114   120   un
   160   114   179    1
   161   116   126    1
   162   116   127    1
   163   117   118    1
   164   117   121    2
   165   117   124    1
   166   118   140   un
   167   119   120    1
   168   119   130    1
   169   119   154    2
   170   120   142   un
   171   121   122    1
   172   121   132    1
   173   123   128    1
   174   123   132    2
   175   123   135    1
   176   124   125    1
   177   124   128    2
   178   126   134    1
   179   126   143    2
   180   127   135    2
   181   127   151    1
   182   128   129    1
   183   130   131    1
   184   130   136    2
   185   132   133    1
   186   134   136    1
   187   134   159    2
   188   135   138    1
   189   136   137    1
   190   138   139    1
   191   138   161    2
   192   140   174    1
   193   141   145   un
   194   142   175    1
   195   143   151    1
   196   144   145    1
   197   144   146    2
   198   144   149    1
   199   145   163   un
   200   146   147    1
   201   146   156    1
   202   148   152    1
   203   148   156    2
   204   148   158    1
   205   149   150    1
   206   149   152    2
   207   151   158    2
   208   152   153    1
   209   154   155    1
   210   154   159    1
   211   156   157    1
   212   158   161    1
   213   159   160    1
   214   161   162    1
   215   163   171    1
   216   165   166    1
   217   165   186    1
   218   165   192    1
   219   165   194    1
   220   165   200    1
   221   166   183    1
   222   168   169    1
   223   168   184    1
   224   168   191    1
   225   168   195    1
   226   168   198    1
   227   168   199    1
   228   169   181    1
   229   171   187    1
   230   172   188    1
   231   173   185    1
   232   173   186    1
   233   174   189    1
   234   174   198    1
   235   181   184    1
   236   181   197    1
   237   182   185    1
   238   183   186    1
@<TRIPOS>SUBSTRUCTURE
     1 RES1        1 GROUP             0 ****  ****    0  
@<TRIPOS>CRYSIN
   23.3072   23.3072   21.8206   90.0000   90.0000  120.0000   186     1
