####################################################################### 
# 
# This file contains crystal structure data downloaded from the 
# Cambridge Structural Database (CSD) hosted by the Cambridge 
# Crystallographic Data Centre (CCDC).
# 
# Full information about CCDC data access policies and citation 
# guidelines are available at http://www.ccdc.cam.ac.uk/access/V1 
# 
# Audit and citation data items may have been added by the CCDC. 
# Please retain this information to preserve the provenance of 
# this file and to allow appropriate attribution of the data. 
# 
#######################################################################
@<TRIPOS>MOLECULE
RIVBUW
    92   102     3     0     0
SMALL
NO_CHARGES
****
Generated from the CSD

@<TRIPOS>ATOM
     1 Cu1      0.1371   4.3421  11.2770   Cu        1 RES1   0.0000
     2 O1       1.1437   5.9752  11.0650   O.3       1 RES1   0.0000
     3 C1      -0.7599   2.3443   8.2953   C.3       1 RES1   0.0000
     4 H1A     -1.2898   2.2409   7.4773   H         1 RES1   0.0000
     5 H1B     -1.3586   2.3762   9.0694   H         1 RES1   0.0000
     6 H1C     -0.1472   1.5849   8.3857   H         1 RES1   0.0000
     7 N1       0.4289   4.2678   9.3261   N.2       1 RES1   0.0000
     8 Cl1     -0.9945   2.4709  11.7319   Cl        1 RES1   0.0000
     9 Cu2      1.6013   6.4327  12.8716   Cu        1 RES1   0.0000
    10 O2       0.2233   5.0304  13.1236   O.3       1 RES1   0.0000
    11 C2       0.0264   3.6117   8.2218   C.2       1 RES1   0.0000
    12 N2       1.1170   5.3617   8.8841   N.pl3     1 RES1   0.0000
    13 Cl2      3.3435   7.7368  12.4118   Cl        1 RES1   0.0000
    14 C5       1.8455   6.5024   6.8111   C.3       1 RES1   0.0000
    15 H5A      2.0966   6.1978   5.9144   H         1 RES1   0.0000
    16 H5B      2.6503   6.7708   7.3015   H         1 RES1   0.0000
    17 H5C      1.2373   7.2682   6.7374   H         1 RES1   0.0000
    18 N4       1.0085   5.1731  15.2764   N.pl3     1 RES1   0.0000
    19 C4       1.1665   5.3989   7.5378   C.2       1 RES1   0.0000
    20 N3       1.7043   6.2585  14.8293   N.2       1 RES1   0.0000
    21 C3       0.4865   4.2912   7.0922   C.2       1 RES1   0.0000
    22 H3       0.3531   4.0367   6.1855   H         1 RES1   0.0000
    23 C6       1.7553   6.2276   9.8851   C.3       1 RES1   0.0000
    24 H6A      2.7223   6.0273   9.9485   H         1 RES1   0.0000
    25 H6B      1.6449   7.1798   9.6384   H         1 RES1   0.0000
    26 C11      0.3833   3.9675  17.3626   C.3       1 RES1   0.0000
    27 H11A     0.1292   4.2795  18.2561   H         1 RES1   0.0000
    28 H11B     1.0025   3.2134  17.4429   H         1 RES1   0.0000
    29 H11C    -0.4185   3.6820  16.8764   H         1 RES1   0.0000
    30 C10      1.0420   5.0709  16.6229   C.2       1 RES1   0.0000
    31 C9       1.7761   6.1530  17.0573   C.2       1 RES1   0.0000
    32 H9       1.9672   6.3735  17.9606   H         1 RES1   0.0000
    33 C8       2.1872   6.8645  15.9353   C.2       1 RES1   0.0000
    34 C7       2.9698   8.1224  15.8557   C.3       1 RES1   0.0000
    35 H7A      3.6712   8.1149  16.5394   H         1 RES1   0.0000
    36 H7B      2.3752   8.8871  16.0046   H         1 RES1   0.0000
    37 H7C      3.3803   8.1959  14.9692   H         1 RES1   0.0000
    38 C12      0.4381   4.2646  14.2676   C.3       1 RES1   0.0000
    39 H12A     1.0663   3.5233  14.0755   H         1 RES1   0.0000
    40 H12B    -0.4147   3.8801  14.5907   H         1 RES1   0.0000
    41 Cu1     -1.8978   6.3088  13.1426   Cu        1 RES1   0.0000
    42 O1      -2.9044   4.6757  13.3546   O.3       1 RES1   0.0000
    43 C1      -1.0008   8.3066  16.1243   C.3       1 RES1   0.0000
    44 H1A     -0.4709   8.4100  16.9423   H         1 RES1   0.0000
    45 H1B     -0.4021   8.2747  15.3502   H         1 RES1   0.0000
    46 H1C     -1.6135   9.0660  16.0339   H         1 RES1   0.0000
    47 N1      -2.1896   6.3831  15.0935   N.2       1 RES1   0.0000
    48 Cl1     -0.7662   8.1800  12.6877   Cl        1 RES1   0.0000
    49 Cu2     -3.3620   4.2182  11.5480   Cu        1 RES1   0.0000
    50 O2      -1.9840   5.6205  11.2960   O.3       1 RES1   0.0000
    51 C2      -1.7872   7.0392  16.1978   C.2       1 RES1   0.0000
    52 N2      -2.8777   5.2892  15.5355   N.pl3     1 RES1   0.0000
    53 Cl2     -5.1042   2.9141  12.0079   Cl        1 RES1   0.0000
    54 C5      -3.6062   4.1485  17.6085   C.3       1 RES1   0.0000
    55 H5A     -3.8573   4.4531  18.5052   H         1 RES1   0.0000
    56 H5B     -4.4110   3.8801  17.1181   H         1 RES1   0.0000
    57 H5C     -2.9980   3.3827  17.6822   H         1 RES1   0.0000
    58 N4      -2.7692   5.4778   9.1432   N.pl3     1 RES1   0.0000
    59 C4      -2.9272   5.2520  16.8818   C.2       1 RES1   0.0000
    60 N3      -3.4650   4.3924   9.5903   N.2       1 RES1   0.0000
    61 C3      -2.2472   6.3597  17.3274   C.2       1 RES1   0.0000
    62 H3      -2.1138   6.6142  18.2341   H         1 RES1   0.0000
    63 C6      -3.5160   4.4233  14.5346   C.3       1 RES1   0.0000
    64 H6A     -4.4830   4.6236  14.4711   H         1 RES1   0.0000
    65 H6B     -3.4056   3.4711  14.7812   H         1 RES1   0.0000
    66 C11     -2.1440   6.6834   7.0570   C.3       1 RES1   0.0000
    67 H11A    -1.8899   6.3714   6.1635   H         1 RES1   0.0000
    68 H11B    -2.7632   7.4375   6.9767   H         1 RES1   0.0000
    69 H11C    -1.3422   6.9689   7.5432   H         1 RES1   0.0000
    70 C10     -2.8027   5.5800   7.7967   C.2       1 RES1   0.0000
    71 C9      -3.5368   4.4979   7.3623   C.2       1 RES1   0.0000
    72 H9      -3.7279   4.2774   6.4590   H         1 RES1   0.0000
    73 C8      -3.9479   3.7864   8.4843   C.2       1 RES1   0.0000
    74 C7      -4.7305   2.5285   8.5640   C.3       1 RES1   0.0000
    75 H7A     -5.4319   2.5360   7.8802   H         1 RES1   0.0000
    76 H7B     -4.1359   1.7638   8.4150   H         1 RES1   0.0000
    77 H7C     -5.1411   2.4550   9.4504   H         1 RES1   0.0000
    78 C12     -2.1988   6.3863  10.1520   C.3       1 RES1   0.0000
    79 H12A    -2.8270   7.1276  10.3441   H         1 RES1   0.0000
    80 H12B    -1.3460   6.7708   9.8289   H         1 RES1   0.0000
    81 N5       4.0154   9.2205   8.4516   N.1       2 RES2   0.0000
    82 C13      4.5295   9.6806   9.3283   C.1       2 RES2   0.0000
    83 C14      5.1667  10.2771  10.4809   C.3       2 RES2   0.0000
    84 H14A     5.6067   9.5784  11.0084   H         2 RES2   0.0000
    85 H14B     4.4914  10.7265  11.0303   H         2 RES2   0.0000
    86 H14C     5.8337  10.9310  10.1830   H         2 RES2   0.0000
    87 N6      -0.0041   9.2950   8.2929   N.1       3 RES3   0.0000
    88 C15      0.4896   9.7072   9.2135   C.1       3 RES3   0.0000
    89 C16      1.1283  10.2589  10.3905   C.3       3 RES3   0.0000
    90 H16A     1.6022   9.5475  10.8692   H         3 RES3   0.0000
    91 H16B     0.4477  10.6509  10.9791   H         3 RES3   0.0000
    92 H16C     1.7661  10.9523  10.1219   H         3 RES3   0.0000
@<TRIPOS>BOND
     1     1     2    1
     2     1     7    1
     3     1     8    1
     4     1    10    1
     5     1    50    1
     6     2     9    1
     7     2    23    1
     8     3     4    1
     9     3     5    1
    10     3     6    1
    11     3    11    1
    12     7    11    2
    13     7    12    1
    14     8    49    1
    15     9    10    1
    16     9    13    1
    17     9    20    1
    18     9    48    1
    19    10    38    1
    20    10    41    1
    21    11    21    1
    22    12    19    1
    23    12    23    1
    24    14    15    1
    25    14    16    1
    26    14    17    1
    27    14    19    1
    28    18    20    1
    29    18    30    1
    30    18    38    1
    31    19    21    2
    32    20    33    2
    33    21    22    1
    34    23    24    1
    35    23    25    1
    36    26    27    1
    37    26    28    1
    38    26    29    1
    39    26    30    1
    40    30    31    2
    41    31    32    1
    42    31    33    1
    43    33    34    1
    44    34    35    1
    45    34    36    1
    46    34    37    1
    47    38    39    1
    48    38    40    1
    49    41    42    1
    50    41    47    1
    51    41    48    1
    52    41    50    1
    53    42    49    1
    54    42    63    1
    55    43    44    1
    56    43    45    1
    57    43    46    1
    58    43    51    1
    59    47    51    2
    60    47    52    1
    61    49    50    1
    62    49    53    1
    63    49    60    1
    64    50    78    1
    65    51    61    1
    66    52    59    1
    67    52    63    1
    68    54    55    1
    69    54    56    1
    70    54    57    1
    71    54    59    1
    72    58    60    1
    73    58    70    1
    74    58    78    1
    75    59    61    2
    76    60    73    2
    77    61    62    1
    78    63    64    1
    79    63    65    1
    80    66    67    1
    81    66    68    1
    82    66    69    1
    83    66    70    1
    84    70    71    2
    85    71    72    1
    86    71    73    1
    87    73    74    1
    88    74    75    1
    89    74    76    1
    90    74    77    1
    91    78    79    1
    92    78    80    1
    93    81    82    3
    94    82    83    1
    95    83    84    1
    96    83    85    1
    97    83    86    1
    98    87    88    3
    99    88    89    1
   100    89    90    1
   101    89    91    1
   102    89    92    1
@<TRIPOS>SUBSTRUCTURE
     1 RES1        1 GROUP             0 ****  ****    0  
     2 RES2       81 GROUP             0 ****  ****    0  
     3 RES3       87 GROUP             0 ****  ****    0  
@<TRIPOS>CRYSIN
    8.2130   10.6509   24.4830   90.0000   94.1240   90.0000   231     1
