####################################################################### 
# 
# This file contains crystal structure data downloaded from the 
# Cambridge Structural Database (CSD) hosted by the Cambridge 
# Crystallographic Data Centre (CCDC).
# 
# Full information about CCDC data access policies and citation 
# guidelines are available at http://www.ccdc.cam.ac.uk/access/V1 
# 
# Audit and citation data items may have been added by the CCDC. 
# Please retain this information to preserve the provenance of 
# this file and to allow appropriate attribution of the data. 
# 
#######################################################################
@<TRIPOS>MOLECULE
GIKYIL
    61    70     1     0     0
SMALL
USER_CHARGES
****
Generated from the CSD

@<TRIPOS>ATOM
     1 Cu1     -1.9046  17.6266   2.7783   Cu        1 RES1   1.0000
     2 Cu2      0.6279  20.2061   2.5470   Cu        1 RES1   0.0000
     3 C1      -3.8031  15.3768  -0.7437   C.2       1 RES1   0.0000
     4 H1      -4.6454  15.2394  -0.3729   H         1 RES1   0.0000
     5 C2      -2.9842  16.3306  -0.1559   C.2       1 RES1   0.0000
     6 H2      -3.2933  16.8377   0.5614   H         1 RES1   0.0000
     7 C3      -1.7382  16.5124  -0.6357   C.2       1 RES1   0.0000
     8 C4      -1.3614  15.8274  -1.7605   C.2       1 RES1   0.0000
     9 H4      -0.5355  15.9729  -2.1578   H         1 RES1   0.0000
    10 C5      -2.2679  14.9040  -2.2923   C.2       1 RES1   0.0000
    11 H5      -2.0077  14.4332  -3.0513   H         1 RES1   0.0000
    12 C6      -0.7525  17.4763  -0.0723   C.2       1 RES1   0.0000
    13 C7       0.9088  18.7169   0.1752   C.2       1 RES1   0.0000
    14 C8       2.1769  19.3696   0.0153   C.2       1 RES1   0.0000
    15 C9       3.7588  20.7678   0.8181   C.2       1 RES1   0.0000
    16 H9       4.0481  21.3861   1.4508   H         1 RES1   0.0000
    17 C10      4.6069  20.4304  -0.1864   C.2       1 RES1   0.0000
    18 H10      5.4609  20.7941  -0.2425   H         1 RES1   0.0000
    19 C11      4.1484  19.5191  -1.1288   C.2       1 RES1   0.0000
    20 H11      4.7096  19.2665  -1.8267   H         1 RES1   0.0000
    21 N1      -3.4648  14.6494  -1.7972   N.2       1 RES1   0.0000
    22 N2      -0.9274  18.0501   1.1421   N.2       1 RES1   0.0000
    23 N3       0.1622  18.8866   1.2969   N.2       1 RES1   0.0000
    24 N4       0.3803  17.8299  -0.6989   N.2       1 RES1   0.0000
    25 N5       2.5315  20.2586   0.9444   N.2       1 RES1   0.0000
    26 N6       2.9083  18.9917  -1.0534   N.2       1 RES1   0.0000
    27 Cu1     -1.9046  22.7856   2.3157   Cu        1 RES1   0.0000
    28 C1      -3.8031  25.0354   5.8377   C.2       1 RES1   0.0000
    29 H1      -4.6454  25.1728   5.4669   H         1 RES1   0.0000
    30 C2      -2.9842  24.0816   5.2499   C.2       1 RES1   0.0000
    31 H2      -3.2933  23.5745   4.5326   H         1 RES1   0.0000
    32 C3      -1.7382  23.8998   5.7297   C.2       1 RES1   0.0000
    33 C4      -1.3614  24.5848   6.8545   C.2       1 RES1   0.0000
    34 H4      -0.5355  24.4393   7.2518   H         1 RES1   0.0000
    35 C5      -2.2679  25.5082   7.3863   C.2       1 RES1   0.0000
    36 H5      -2.0077  25.9790   8.1453   H         1 RES1   0.0000
    37 C6      -0.7525  22.9359   5.1663   C.2       1 RES1   0.0000
    38 C7       0.9088  21.6953   4.9188   C.2       1 RES1   0.0000
    39 C8       2.1769  21.0426   5.0787   C.2       1 RES1   0.0000
    40 C9       3.7588  19.6444   4.2759   C.2       1 RES1   0.0000
    41 H9       4.0481  19.0261   3.6432   H         1 RES1   0.0000
    42 C10      4.6069  19.9818   5.2804   C.2       1 RES1   0.0000
    43 H10      5.4609  19.6181   5.3365   H         1 RES1   0.0000
    44 C11      4.1484  20.8931   6.2228   C.2       1 RES1   0.0000
    45 H11      4.7096  21.1457   6.9207   H         1 RES1   0.0000
    46 N1      -3.4648  25.7628   6.8912   N.2       1 RES1   0.0000
    47 N2      -0.9274  22.3621   3.9519   N.2       1 RES1   0.0000
    48 N3       0.1622  21.5256   3.7971   N.2       1 RES1   0.0000
    49 N4       0.3803  22.5823   5.7929   N.2       1 RES1   0.0000
    50 N5       2.5315  20.1536   4.1496   N.2       1 RES1   0.0000
    51 N6       2.9083  21.4205   6.1474   N.2       1 RES1   0.0000
    52 Cu1      1.9046  22.7856   7.4097   Cu        1 RES1   0.0000
    53 Cu1     -4.5514  27.3700   7.4097   Cu        1 RES1   0.0000
    54 Cu1     -4.5514  13.0422  -2.3157   Cu        1 RES1   0.0000
    55 Cu1      1.9046  17.6266  -2.3157   Cu        1 RES1   0.0000
    56 N1      -2.7532  24.5302   1.7972   N.3       1 RES1   0.0000
    57 N1      -2.7532  15.8820   3.2968   N.3       1 RES1   0.0000
    58 N4      -0.3803  22.5823   0.6989   N.3       1 RES1   0.0000
    59 N4      -0.3803  17.8299   4.3951   N.3       1 RES1   0.0000
    60 N6      -2.9083  21.4205   1.0534   N.3       1 RES1   0.0000
    61 N6      -2.9083  18.9917   4.0406   N.3       1 RES1   0.0000
@<TRIPOS>BOND
     1     1    22    1
     2     1    57    1
     3     1    59    1
     4     1    61    1
     5     2    23    1
     6     2    25    1
     7     2    48    1
     8     2    50    1
     9     3     4    1
    10     3     5    1
    11     3    21    2
    12     5     6    1
    13     5     7    2
    14     7     8    1
    15     7    12    1
    16     8     9    1
    17     8    10    2
    18    10    11    1
    19    10    21    1
    20    12    22    1
    21    12    24    2
    22    13    14    1
    23    13    23    2
    24    13    24    1
    25    14    25    2
    26    14    26    1
    27    15    16    1
    28    15    17    2
    29    15    25    1
    30    17    18    1
    31    17    19    1
    32    19    20    1
    33    19    26    2
    34    21    54    1
    35    22    23    1
    36    24    55    1
    37    26    55    1
    38    27    47    1
    39    27    56    1
    40    27    58    1
    41    27    60    1
    42    28    29    1
    43    28    30    1
    44    28    46    2
    45    30    31    1
    46    30    32    2
    47    32    33    1
    48    32    37    1
    49    33    34    1
    50    33    35    2
    51    35    36    1
    52    35    46    1
    53    37    47    1
    54    37    49    2
    55    38    39    1
    56    38    48    2
    57    38    49    1
    58    39    50    2
    59    39    51    1
    60    40    41    1
    61    40    42    2
    62    40    50    1
    63    42    43    1
    64    42    44    1
    65    44    45    1
    66    44    51    2
    67    46    53    1
    68    47    48    1
    69    49    52    1
    70    51    52    1
@<TRIPOS>SUBSTRUCTURE
     1 RES1        1 GROUP             0 ****  ****    0  
@<TRIPOS>CRYSIN
   23.3320   23.3320   10.1880   90.0000   90.0000  120.0000   165     1
