####################################################################### 
# 
# This file contains crystal structure data downloaded from the 
# Cambridge Structural Database (CSD) hosted by the Cambridge 
# Crystallographic Data Centre (CCDC).
# 
# Full information about CCDC data access policies and citation 
# guidelines are available at http://www.ccdc.cam.ac.uk/access/V1 
# 
# Audit and citation data items may have been added by the CCDC. 
# Please retain this information to preserve the provenance of 
# this file and to allow appropriate attribution of the data. 
# 
#######################################################################
@<TRIPOS>MOLECULE
DOCQAQ
    63    63     3     0     0
SMALL
NO_CHARGES
****
Generated from the CSD

@<TRIPOS>ATOM
     1 Zr1      8.7835   6.2519   5.7550   Zr        1 RES1   0.0000
     2 Zr2      8.4963  14.0429   2.3152   Zr        1 RES1   0.0000
     3 Sr3      7.4901  10.3063   4.4103   Sr        1 RES1   0.0000
     4 P4       5.4569   5.3124   5.5495   P.3       1 RES1   0.0000
     5 P3       8.7582   4.8727   2.5045   P.3       1 RES1   0.0000
     6 P2       3.5529   3.2159   6.6685   P.3       1 RES1   0.0000
     7 P1      10.6884   6.8062   1.0765   P.3       1 RES1   0.0000
     8 F2       8.4851  12.2004   3.0519   F         1 RES1   0.0000
     9 O14      8.6435   5.6617   3.7820   O.co2     1 RES1   0.0000
    10 O13      6.7545   6.0237   5.9261   O.co2     1 RES1   0.0000
    11 O12      9.9137   3.8558   2.5472   O.co2     1 RES1   0.0000
    12 F1       8.6545   8.1651   5.2500   F         1 RES1   0.0000
    13 O10      3.2831   2.6846   8.1178   O.co2     1 RES1   0.0000
    14 O9       7.4658   4.0993   2.1949   O.co2     1 RES1   0.0000
    15 O8       4.3160   6.3424   5.5547   O.co2     1 RES1   0.0000
    16 O7       2.4866   4.2859   6.3339   O.co2     1 RES1   0.0000
    17 O6       5.5742   4.6297   4.1978   O.co2     1 RES1   0.0000
    18 O5      10.8903   7.1303  -0.4317   O.co2     1 RES1   0.0000
    19 O4      11.7287   5.7513   1.5236   O.co2     1 RES1   0.0000
    20 O3      10.7340   8.0618   1.9124   O.co2     1 RES1   0.0000
    21 O2       3.6318   2.1006   5.6833   O.co2     1 RES1   0.0000
    22 O1       5.5123  11.4043   2.9932   O.3       1 RES1   0.0000
    23 H1A      4.7685  11.8556   3.5398   H         1 RES1   0.0000
    24 H1B      4.9176  10.7506   2.4619   H         1 RES1   0.0000
    25 O18      5.4135   8.6984   4.2438   O.3       1 RES1   0.0000
    26 H18A     5.5544   7.9911   4.7073   H         1 RES1   0.0000
    27 H18B     5.3382   8.4098   3.4399   H         1 RES1   0.0000
    28 C2       5.1483   4.0870   6.8037   C.3       1 RES1   0.0000
    29 H2A      5.1893   4.5186   7.6717   H         1 RES1   0.0000
    30 H2B      5.8607   3.4290   6.7722   H         1 RES1   0.0000
    31 O17     10.0250  10.7087   4.9564   O.3       1 RES1   0.0000
    32 H17A    10.3225   9.9157   4.9171   H         1 RES1   0.0000
    33 H17B    10.1334  11.1014   5.6994   H         1 RES1   0.0000
    34 O16      8.2662   9.2337   2.2647   O.3       1 RES1   0.0000
    35 H16D     8.2936   9.8902   1.5646   H         1 RES1   0.0000
    36 H16E     9.1455   8.8724   2.3988   H         1 RES1   0.0000
    37 C1       9.0600   6.0382   1.1792   C.3       1 RES1   0.0000
    38 H1C      8.4026   6.7474   1.2535   H         1 RES1   0.0000
    39 H1D      8.8948   5.5814   0.3402   H         1 RES1   0.0000
    40 O19      6.7003   9.8028   6.9291   O.3       1 RES1   0.0000
    41 H19A     6.3920  10.4961   7.4675   H         1 RES1   0.0000
    42 H19B     6.7359   8.9357   7.2635   H         1 RES1   0.0000
    43 Zr1      2.2283   6.2519   5.7550   Zr        1 RES1   0.0000
    44 Zr1      3.5169   3.2078  10.1156   Zr        1 RES1   0.0000
    45 Zr2      5.4280   3.8531   2.3152   Zr        1 RES1   0.0000
    46 Zr2     11.9832   3.8531   2.3152   Zr        1 RES1   0.0000
    47 Zr2     10.7507   6.3366  -2.3152   Zr        1 RES1   0.0000
    48 Sr3      4.4218   0.1166   4.4103   Sr        1 RES1   0.0000
    49 O12      6.4268  14.0456   2.5472   O.3       1 RES1   0.0000
    50 O10      9.0173   6.7752   7.7528   O.3       1 RES1   0.0000
    51 O9      10.5341  14.2890   2.1949   O.3       1 RES1   0.0000
    52 O8      10.8712   6.3424   5.5547   O.3       1 RES1   0.0000
    53 O7       9.0418   4.2859   6.3339   O.3       1 RES1   0.0000
    54 O6       8.6425  14.8195   4.1978   O.3       1 RES1   0.0000
    55 O5       8.3568  13.2492   0.4317   O.3       1 RES1   0.0000
    56 O4       8.2418  15.9411   1.5236   O.3       1 RES1   0.0000
    57 O2       6.7001  12.2903   5.6833   O.3       1 RES1   0.0000
    58 O2W      5.0230  10.3138   0.4269   O.3       2 RES2   0.0000
    59 H2WA     5.3347  11.1030   0.3824   H         2 RES2   0.0000
    60 H2WB     5.6686   9.8465   0.7239   H         2 RES2   0.0000
    61 O1W      7.2203   1.4299   7.5703   O.3       3 RES3   0.0000
    62 H1WA     7.7709   0.8587   7.8747   H         3 RES3   0.0000
    63 H1WB     7.2455   2.0695   8.1293   H         3 RES3   0.0000
@<TRIPOS>BOND
     1     1     9    1
     2     1    10    1
     3     1    12    1
     4     1    50    1
     5     1    52    1
     6     1    53    1
     7     2     8    1
     8     2    49    1
     9     2    51    1
    10     2    54    1
    11     2    55    1
    12     2    56    1
    13     3     8    1
    14     3    12    1
    15     3    22    1
    16     3    25    1
    17     3    31    1
    18     3    34    1
    19     3    40    1
    20     3    57    1
    21     4    10   un
    22     4    15    1
    23     4    17   un
    24     4    28    1
    25     5     9   un
    26     5    11    1
    27     5    14   un
    28     5    37    1
    29     6    13   un
    30     6    16    1
    31     6    21   un
    32     6    28    1
    33     7    18    1
    34     7    19    1
    35     7    20    2
    36     7    37    1
    37    11    46    1
    38    13    44    1
    39    14    45    1
    40    15    43    1
    41    16    43    1
    42    17    45    1
    43    18    47    1
    44    19    46    1
    45    21    48    1
    46    22    23    1
    47    22    24    1
    48    25    26    1
    49    25    27    1
    50    28    29    1
    51    28    30    1
    52    31    32    1
    53    31    33    1
    54    34    35    1
    55    34    36    1
    56    37    38    1
    57    37    39    1
    58    40    41    1
    59    40    42    1
    60    58    59    1
    61    58    60    1
    62    61    62    1
    63    61    63    1
@<TRIPOS>SUBSTRUCTURE
     1 RES1        1 GROUP             0 ****  ****    0  
     2 RES2       58 GROUP             0 ****  ****    0  
     3 RES3       61 GROUP             0 ****  ****    0  
@<TRIPOS>CRYSIN
    6.5552   10.6417   16.1113   89.7410   80.4360   73.2420     2     1
