####################################################################### 
# 
# This file contains crystal structure data downloaded from the 
# Cambridge Structural Database (CSD) hosted by the Cambridge 
# Crystallographic Data Centre (CCDC).
# 
# Full information about CCDC data access policies and citation 
# guidelines are available at http://www.ccdc.cam.ac.uk/access/V1 
# 
# Audit and citation data items may have been added by the CCDC. 
# Please retain this information to preserve the provenance of 
# this file and to allow appropriate attribution of the data. 
# 
#######################################################################
@<TRIPOS>MOLECULE
DOCQIY
    52    46     4     0     0
SMALL
NO_CHARGES
****
Generated from the CSD

@<TRIPOS>ATOM
     1 Zr1      1.0798   5.5703   1.9096   Zr        1 RES1   0.0000
     2 Zr2     -3.1279   8.6021   2.9160   Zr        1 RES1   0.0000
     3 P3       4.5370   5.7012   1.2973   P.3       1 RES1   0.0000
     4 P4       0.2441   8.8987   2.0845   P.3       1 RES1   0.0000
     5 P5       2.1436   7.8067   4.2354   P.3       1 RES1   0.0000
     6 P6       6.4610   5.4541   3.5683   P.3       1 RES1   0.0000
     7 O15      2.2425   7.7710   5.7519   O.co2     1 RES1   0.0000
     8 O14      3.0249   5.7414   1.2920   O.co2     1 RES1   0.0000
     9 O13      3.4612   8.2138   3.5799   O.co2     1 RES1   0.0000
    10 O12     -1.2495   9.0798   2.1815   O.co2     1 RES1   0.0000
    11 O11      7.6916   5.2894   2.6589   O.co2     1 RES1   0.0000
    12 O10      5.0568   5.0399   0.0432   O.co2     1 RES1   0.0000
    13 O9       1.6888   6.4125   3.7433   O.co2     1 RES1   0.0000
    14 O8       0.6150   7.5366   1.4691   O.co2     1 RES1   0.0000
    15 O7       6.1693   6.9241   3.8697   O.co2     1 RES1   0.0000
    16 O6       6.6921   4.7022   4.8983   O.co2     1 RES1   0.0000
    17 O5       5.0971   7.1102   1.4406   O.co2     1 RES1   0.0000
    18 O1       0.8899  10.0046   1.2889   O.co2     1 RES1   0.0000
    19 F1       1.6268   3.8686   2.5714   F         1 RES1   0.0000
    20 C2       5.0053   4.6888   2.6957   C.3       1 RES1   0.0000
    21 H2A      5.2387   3.7980   2.3912   H         1 RES1   0.0000
    22 H2B      4.2588   4.6136   3.3091   H         1 RES1   0.0000
    23 C1       0.8396   9.0622   3.7391   C.3       1 RES1   0.0000
    24 H1A      0.0860   8.9817   4.3461   H         1 RES1   0.0000
    25 H1B      1.2082   9.9522   3.8476   H         1 RES1   0.0000
    26 O18     -4.5947  11.8022   1.0770   O.2       1 RES1   0.0000
    27 N1      -4.1429  10.7132   1.6988   N.pl3     1 RES1   0.0000
    28 O21     -3.7205  10.7793   2.9181   O.3       1 RES1   0.0000
    29 O20     -4.0233   9.5761   1.0180   O.3       1 RES1   0.0000
    30 Zr3      9.5508   5.5703   1.9096   Zr        1 RES1   0.0000
    31 Zr4      4.5181   4.5924  -1.9096   Zr        1 RES1   0.0000
    32 Zr5      5.3431   8.6021   2.9160   Zr        1 RES1   0.0000
    33 Zr6      2.7299   8.5441   7.6225   Zr        1 RES1   0.0000
    34 O19     -2.6406   9.3752   4.7866   O.3       1 RES1   0.0000
    35 O23     -5.0098   8.2138   3.5799   O.3       1 RES1   0.0000
    36 O24     -0.7794   5.2894   2.6589   O.3       1 RES1   0.0000
    37 O25      0.5411   5.1228  -0.0432   O.3       1 RES1   0.0000
    38 O26     -2.3017   6.9241   3.8697   O.3       1 RES1   0.0000
    39 O27     -3.3739   7.1102   1.4406   O.3       1 RES1   0.0000
    40 O1W      3.1630   2.0735   0.8747   O.3       2 RES2   0.0000
    41 H1WA     2.3784   1.8891   0.6102   H         2 RES2   0.0000
    42 H1WB     3.0445   2.4758   1.6198   H         2 RES2   0.0000
    43 O2W      2.6054   4.2551   5.6697   O.3       3 RES3   0.0000
    44 H2WA     2.0877   4.2475   6.3484   H         3 RES3   0.0000
    45 H2WB     2.2831   3.7590   5.0637   H         3 RES3   0.0000
    46 O16?     1.8088   1.8658   3.0456   O.3       4 RES4   0.0000
    47 N2?      1.5432   3.0035   2.6768   N.3       4 RES4   0.0000
    48 O22?     1.7820   3.9497   3.4145   O.3       4 RES4   0.0000
    49 O17?     1.0924   3.2154   1.5702   O.3       4 RES4   0.0000
    50 O3W?     3.3842   4.6877   5.6170   O.3       4 RES4   0.0000
    51 H3WA?    3.8420   3.9942   5.8035   H         4 RES4   0.0000
    52 H3WB?    3.0787   4.9458   6.3684   H         4 RES4   0.0000
@<TRIPOS>BOND
     1     1     8    1
     2     1    13    1
     3     1    14    1
     4     1    19    1
     5     1    36    1
     6     1    37    1
     7     2    10    1
     8     2    28    1
     9     2    29    1
    10     2    34    1
    11     2    35    1
    12     2    38    1
    13     2    39    1
    14     3     8    1
    15     3    12    2
    16     3    17    1
    17     3    20    1
    18     4    10    1
    19     4    14    1
    20     4    18    2
    21     4    23    1
    22     5     7    2
    23     5     9    1
    24     5    13    1
    25     5    23    1
    26     6    11    1
    27     6    15    1
    28     6    16    2
    29     6    20    1
    30     7    33    1
    31     9    32    1
    32    11    30    1
    33    12    31    1
    34    15    32    1
    35    17    32    1
    36    20    21    1
    37    20    22    1
    38    23    24    1
    39    23    25    1
    40    26    27    2
    41    27    28    1
    42    27    29    1
    43    40    41    1
    44    40    42    1
    45    43    44    1
    46    43    45    1
@<TRIPOS>SUBSTRUCTURE
     1 RES1        1 GROUP             0 ****  ****    0  
     2 RES2       40 GROUP             0 ****  ****    0  
     3 RES3       43 GROUP             0 ****  ****    0  
     4 RES4       46 GROUP             0 ****  ****    0  
@<TRIPOS>CRYSIN
    8.4710   10.5610   11.4420  101.1350  105.8390  105.7860     2     1
