####################################################################### 
# 
# This file contains crystal structure data downloaded from the 
# Cambridge Structural Database (CSD) hosted by the Cambridge 
# Crystallographic Data Centre (CCDC).
# 
# Full information about CCDC data access policies and citation 
# guidelines are available at http://www.ccdc.cam.ac.uk/access/V1 
# 
# Audit and citation data items may have been added by the CCDC. 
# Please retain this information to preserve the provenance of 
# this file and to allow appropriate attribution of the data. 
# 
#######################################################################
@<TRIPOS>MOLECULE
TIXBUA
   101   116     1     0     0
SMALL
NO_CHARGES
****
Generated from the CSD

@<TRIPOS>ATOM
     1 Co1     -1.5346   6.7422   7.6731   Co.oh     1 RES1   0.0000
     2 N1      -1.6854   7.4002   5.8147   N.2       1 RES1   0.0000
     3 N2       0.1846   7.6780   7.8312   N.2       1 RES1   0.0000
     4 N3       4.9661   9.9150   0.9929   N.2       1 RES1   0.0000
     5 N4       5.8004  10.7578   0.3253   N.2       1 RES1   0.0000
     6 N5       5.5412  11.9808   0.6645   N.2       1 RES1   0.0000
     7 N6       4.6304  11.9282   1.6236   N.pl3     1 RES1   0.0000
     8 H6A      4.3463  12.5997   2.0810   H         1 RES1   0.0000
     9 N7       5.5057   6.8271  14.6910   N.2       1 RES1   0.0000
    10 N8       6.2248   7.3611  15.6992   N.2       1 RES1   0.0000
    11 N9       5.7107   8.5315  16.0261   N.2       1 RES1   0.0000
    12 N10      4.6815   8.7621  15.1851   N.pl3     1 RES1   0.0000
    13 H10      4.1743   9.4565  15.1606   H         1 RES1   0.0000
    14 C1      -2.7227   7.1871   4.9430   C.2       1 RES1   0.0000
    15 C2      -2.4398   7.8236   3.6969   C.2       1 RES1   0.0000
    16 H2      -2.9938   7.8317   2.9496   H         1 RES1   0.0000
    17 C3      -1.2647   8.3926   3.7890   C.2       1 RES1   0.0000
    18 H3      -0.8357   8.8835   3.1245   H         1 RES1   0.0000
    19 C4      -0.7564   8.1202   5.1072   C.2       1 RES1   0.0000
    20 C5       0.4688   8.5490   5.5630   C.2       1 RES1   0.0000
    21 C6       0.8929   8.3239   6.8567   C.2       1 RES1   0.0000
    22 C7       2.1566   8.7850   7.3785   C.2       1 RES1   0.0000
    23 H7       2.8069   9.2597   6.9135   H         1 RES1   0.0000
    24 C8       2.2121   8.4061   8.6400   C.2       1 RES1   0.0000
    25 H8       2.9099   8.5720   9.2308   H         1 RES1   0.0000
    26 C9       1.0094   7.6968   8.9377   C.2       1 RES1   0.0000
    27 C10      0.7543   7.0617  10.1424   C.2       1 RES1   0.0000
    28 C11      1.4266   9.1639   4.5824   C.2       1 RES1   0.0000
    29 C12      1.9223   8.4115   3.5588   C.2       1 RES1   0.0000
    30 H12      1.6417   7.5296   3.4683   H         1 RES1   0.0000
    31 C13      2.8275   8.9253   2.6534   C.2       1 RES1   0.0000
    32 H13      3.1487   8.3791   1.9720   H         1 RES1   0.0000
    33 C14      3.2622  10.2144   2.7362   C.2       1 RES1   0.0000
    34 C15      2.7805  10.9614   3.7353   C.2       1 RES1   0.0000
    35 H15      3.0566  11.8446   3.8228   H         1 RES1   0.0000
    36 C16      1.8702  10.4274   4.6469   C.2       1 RES1   0.0000
    37 H16      1.5561  10.9735   5.3313   H         1 RES1   0.0000
    38 C17      4.2375  10.6984   1.7648   C.2       1 RES1   0.0000
    39 C18      1.7762   7.2289  11.2396   C.2       1 RES1   0.0000
    40 C19      2.5837   6.1704  11.6632   C.2       1 RES1   0.0000
    41 H19      2.5104   5.3425  11.2473   H         1 RES1   0.0000
    42 C20      3.5036   6.3444  12.7083   C.2       1 RES1   0.0000
    43 H20      4.0251   5.6283  12.9906   H         1 RES1   0.0000
    44 C21      3.6347   7.5485  13.3006   C.2       1 RES1   0.0000
    45 C22      2.8446   8.6016  12.9384   C.2       1 RES1   0.0000
    46 H22      2.9046   9.4161  13.3820   H         1 RES1   0.0000
    47 C23      1.9404   8.4250  11.8796   C.2       1 RES1   0.0000
    48 H23      1.4309   9.1531  11.6018   H         1 RES1   0.0000
    49 C24      4.6180   7.6726  14.3902   C.2       1 RES1   0.0000
    50 N1      -1.3839   6.0841   9.5316   N.2       1 RES1   0.0000
    51 N2      -3.2539   5.8063   7.5151   N.2       1 RES1   0.0000
    52 N3      -8.0353   3.5693  14.3534   N.2       1 RES1   0.0000
    53 N4      -8.8697   2.7265  15.0209   N.2       1 RES1   0.0000
    54 N5      -8.6105   1.5035  14.6818   N.2       1 RES1   0.0000
    55 N6      -7.6997   1.5561  13.7226   N.pl3     1 RES1   0.0000
    56 H6A     -7.4156   0.8846  13.2653   H         1 RES1   0.0000
    57 N7      -8.5750   6.6572   0.6553   N.2       1 RES1   0.0000
    58 N8      -9.2940   6.1232  -0.3530   N.2       1 RES1   0.0000
    59 N9      -8.7800   4.9528  -0.6798   N.2       1 RES1   0.0000
    60 N10     -7.7507   4.7222   0.1611   N.pl3     1 RES1   0.0000
    61 H10     -7.2436   4.0278   0.1857   H         1 RES1   0.0000
    62 C1      -0.3466   6.2972  10.4032   C.2       1 RES1   0.0000
    63 C2      -0.6295   5.6607  11.6494   C.2       1 RES1   0.0000
    64 H2      -0.0755   5.6526  12.3967   H         1 RES1   0.0000
    65 C3      -1.8046   5.0917  11.5573   C.2       1 RES1   0.0000
    66 H3      -2.2336   4.6008  12.2218   H         1 RES1   0.0000
    67 C4      -2.3129   5.3641  10.2390   C.2       1 RES1   0.0000
    68 C5      -3.5381   4.9353   9.7833   C.2       1 RES1   0.0000
    69 C6      -3.9621   5.1604   8.4896   C.2       1 RES1   0.0000
    70 C7      -5.2259   4.6993   7.9678   C.2       1 RES1   0.0000
    71 H7      -5.8762   4.2246   8.4328   H         1 RES1   0.0000
    72 C8      -5.2813   5.0782   6.7063   C.2       1 RES1   0.0000
    73 H8      -5.9791   4.9123   6.1155   H         1 RES1   0.0000
    74 C9      -4.0787   5.7875   6.4086   C.2       1 RES1   0.0000
    75 C10     -3.8235   6.4226   5.2039   C.2       1 RES1   0.0000
    76 C11     -4.4959   4.3204  10.7639   C.2       1 RES1   0.0000
    77 C12     -4.9916   5.0728  11.7875   C.2       1 RES1   0.0000
    78 H12     -4.7110   5.9547  11.8780   H         1 RES1   0.0000
    79 C13     -5.8968   4.5590  12.6929   C.2       1 RES1   0.0000
    80 H13     -6.2180   5.1052  13.3743   H         1 RES1   0.0000
    81 C14     -6.3315   3.2699  12.6100   C.2       1 RES1   0.0000
    82 C15     -5.8498   2.5229  11.6110   C.2       1 RES1   0.0000
    83 H15     -6.1258   1.6397  11.5235   H         1 RES1   0.0000
    84 C16     -4.9395   3.0569  10.6994   C.2       1 RES1   0.0000
    85 H16     -4.6254   2.5108  10.0150   H         1 RES1   0.0000
    86 C17     -7.3068   2.7859  13.5815   C.2       1 RES1   0.0000
    87 C18     -4.8455   6.2554   4.1067   C.2       1 RES1   0.0000
    88 C19     -5.6530   7.3139   3.6831   C.2       1 RES1   0.0000
    89 H19     -5.5797   8.1418   4.0990   H         1 RES1   0.0000
    90 C20     -6.5729   7.1399   2.6380   C.2       1 RES1   0.0000
    91 H20     -7.0944   7.8560   2.3557   H         1 RES1   0.0000
    92 C21     -6.7039   5.9358   2.0457   C.2       1 RES1   0.0000
    93 C22     -5.9139   4.8827   2.4078   C.2       1 RES1   0.0000
    94 H22     -5.9739   4.0682   1.9643   H         1 RES1   0.0000
    95 C23     -5.0097   5.0593   3.4667   C.2       1 RES1   0.0000
    96 H23     -4.5002   4.3312   3.7445   H         1 RES1   0.0000
    97 C24     -7.6873   5.8117   0.9561   C.2       1 RES1   0.0000
    98 Co1     -9.5348   0.0000  15.3463   Co.oh     1 RES1   0.0000
    99 Co1      6.4655  13.4843   0.0000   Co.oh     1 RES1   0.0000
   100 N5      -0.6104   5.2387   7.0086   N.3       1 RES1   0.0000
   101 N5      -2.4589   8.2456   8.3376   N.3       1 RES1   0.0000
@<TRIPOS>BOND
     1     1     2    1
     2     1     3    1
     3     1    50    1
     4     1    51    1
     5     1   100    1
     6     1   101    1
     7     2    14    2
     8     2    19    1
     9     3    21    1
    10     3    26    1
    11     4     5    1
    12     4    38    2
    13     5     6    2
    14     6     7    1
    15     6    99    1
    16     7     8    1
    17     7    38    1
    18     9    10    1
    19     9    49    2
    20    10    11    2
    21    11    12    1
    22    12    13    1
    23    12    49    1
    24    14    15    1
    25    14    75    1
    26    15    16    1
    27    15    17    2
    28    17    18    1
    29    17    19    1
    30    19    20    2
    31    20    21    1
    32    20    28    1
    33    21    22    2
    34    22    23    1
    35    22    24    1
    36    24    25    1
    37    24    26    2
    38    26    27    1
    39    27    39    1
    40    27    62    2
    41    28    29    1
    42    28    36    2
    43    29    30    1
    44    29    31    2
    45    31    32    1
    46    31    33    1
    47    33    34    2
    48    33    38    1
    49    34    35    1
    50    34    36    1
    51    36    37    1
    52    39    40    2
    53    39    47    1
    54    40    41    1
    55    40    42    1
    56    42    43    1
    57    42    44    2
    58    44    45    1
    59    44    49    1
    60    45    46    1
    61    45    47    2
    62    47    48    1
    63    50    62    1
    64    50    67    2
    65    51    69    1
    66    51    74    1
    67    52    53    1
    68    52    86    2
    69    53    54    2
    70    54    55    1
    71    54    98    1
    72    55    56    1
    73    55    86    1
    74    57    58    1
    75    57    97    2
    76    58    59    2
    77    59    60    1
    78    60    61    1
    79    60    97    1
    80    62    63    1
    81    63    64    1
    82    63    65    2
    83    65    66    1
    84    65    67    1
    85    67    68    1
    86    68    69    2
    87    68    76    1
    88    69    70    1
    89    70    71    1
    90    70    72    2
    91    72    73    1
    92    72    74    1
    93    74    75    2
    94    75    87    1
    95    76    77    1
    96    76    84    2
    97    77    78    1
    98    77    79    2
    99    79    80    1
   100    79    81    1
   101    81    82    2
   102    81    86    1
   103    82    83    1
   104    82    84    1
   105    84    85    1
   106    87    88    2
   107    87    95    1
   108    88    89    1
   109    88    90    1
   110    90    91    1
   111    90    92    2
   112    92    93    1
   113    92    97    1
   114    93    94    1
   115    93    95    2
   116    95    96    1
@<TRIPOS>SUBSTRUCTURE
     1 RES1        1 GROUP             0 ****  ****    0  
@<TRIPOS>CRYSIN
   12.9310   13.4843   15.6502   90.0000  101.3100   90.0000   231     1
