####################################################################### 
# 
# This file contains crystal structure data downloaded from the 
# Cambridge Structural Database (CSD) hosted by the Cambridge 
# Crystallographic Data Centre (CCDC).
# 
# Full information about CCDC data access policies and citation 
# guidelines are available at http://www.ccdc.cam.ac.uk/access/V1 
# 
# Audit and citation data items may have been added by the CCDC. 
# Please retain this information to preserve the provenance of 
# this file and to allow appropriate attribution of the data. 
# 
#######################################################################
@<TRIPOS>MOLECULE
QOSLES
   125   134     1     0     0
SMALL
USER_CHARGES
****
Generated from the CSD

@<TRIPOS>ATOM
     1 C1       9.5214  11.2254  27.3535   C.2       1 RES1   0.0000
     2 C2       9.2735  12.1584  28.4780   C.2       1 RES1   0.0000
     3 C3       8.2312  11.9261  29.3408   C.2       1 RES1   0.0000
     4 H3       7.6983  11.1707  29.2382   H         1 RES1   0.0000
     5 C4       7.9813  12.8162  30.3524   C.2       1 RES1   0.0000
     6 H4       7.2747  12.6737  30.9422   H         1 RES1   0.0000
     7 C5       8.7562  13.8819  30.4855   C.2       1 RES1   0.0000
     8 C6       9.7575  14.1513  29.6055   C.2       1 RES1   0.0000
     9 H6      10.2728  14.9184  29.6998   H         1 RES1   0.0000
    10 C7       9.9820  13.3081  28.6180   C.2       1 RES1   0.0000
    11 H7      10.6476  13.5052  28.0007   H         1 RES1   0.0000
    12 C8       9.2735  15.5469  32.2916   C.2       1 RES1   0.0000
    13 C9      11.2059  16.3511  32.8608   C.2       1 RES1   0.0000
    14 C10      9.4394  16.9620  33.9421   C.2       1 RES1   0.0000
    15 C11     13.5950  16.9718  33.1908   C.2       1 RES1   0.0000
    16 C12     14.8208  16.5228  32.8102   C.2       1 RES1   0.0000
    17 H12     14.9008  15.8319  32.1895   H         1 RES1   0.0000
    18 C13     15.9119  17.0869  33.3381   C.2       1 RES1   0.0000
    19 H13     16.7493  16.8586  33.0047   H         1 RES1   0.0000
    20 C14     15.8143  18.0277  34.3915   C.2       1 RES1   0.0000
    21 C15     14.6217  18.3947  34.7269   C.2       1 RES1   0.0000
    22 H15     14.5456  18.9959  35.4306   H         1 RES1   0.0000
    23 C16     13.4779  17.9829  34.1469   C.2       1 RES1   0.0000
    24 H16     12.6542  18.3537  34.3698   H         1 RES1   0.0000
    25 C18      7.5753  17.9360  35.2351   C.2       1 RES1   0.0000
    26 C19      6.5760  17.6022  34.4032   C.2       1 RES1   0.0000
    27 H19      6.7536  17.2353  33.5694   H         1 RES1   0.0000
    28 C20      5.2565  17.8208  34.8265   C.2       1 RES1   0.0000
    29 H20      4.5616  17.6237  34.2373   H         1 RES1   0.0000
    30 C21      4.9520  18.2952  36.0356   C.2       1 RES1   0.0000
    31 C22      5.9904  18.7168  36.7962   C.2       1 RES1   0.0000
    32 H22      5.8206  19.1755  37.5863   H         1 RES1   0.0000
    33 C23      7.2708  18.4806  36.4269   C.2       1 RES1   0.0000
    34 H23      7.9579  18.7012  37.0118   H         1 RES1   0.0000
    35 In1      9.1386   8.4018  26.1867   In        1 RES1   0.0000
    36 In2     10.9152  10.9152  24.5534   In        1 RES1   1.0000
    37 N1      10.5090  15.5293  32.0437   N.2       1 RES1   0.0000
    38 N2      10.7315  17.1162  33.7732   N.2       1 RES1   0.0000
    39 N3       8.6137  16.2340  33.2041   N.2       1 RES1   0.0000
    40 N4      12.5175  16.4018  32.5578   N.pl3     1 RES1   0.0000
    41 H4A     12.7186  15.9997  31.8261   H         1 RES1   0.0000
    42 N5       8.8819  17.7408  34.9100   N.pl3     1 RES1   0.0000
    43 H5       9.4452  18.1761  35.3913   H         1 RES1   0.0000
    44 N6       8.4732  14.7564  31.5506   N.pl3     1 RES1   0.0000
    45 H6A      7.6397  14.7935  31.7672   H         1 RES1   0.0000
    46 O1      10.3168  11.5998  26.4853   O.co2     1 RES1   0.0000
    47 O2       8.9385  10.1323  27.4109   O.co2     1 RES1   0.0000
    48 C17     17.0362  18.5313  35.0421   C.2       1 RES1   0.0000
    49 O3      18.1207  18.0293  34.6394   O.co2     1 RES1   0.0000
    50 O4      16.9064  19.3837  35.9059   O.co2     1 RES1   0.0000
    51 C24      3.5290  18.4943  36.3764   C.2       1 RES1   0.0000
    52 O5       3.2790  18.9514  37.4744   O.co2     1 RES1   0.0000
    53 O6       2.7344  18.1575  35.5366   O.co2     1 RES1   0.0000
    54 O7       8.7338   7.3196  27.9560   O.3       1 RES1   0.0000
    55 O8      12.5023  12.5023  24.5534   O.3       1 RES1   0.0000
    56 O9       9.4851   9.4851  24.5534   O.3       1 RES1   0.0000
    57 C1      11.2254   9.5214  21.7533   C.2       1 RES1   0.0000
    58 C2      12.1584   9.2735  20.6288   C.2       1 RES1   0.0000
    59 C3      11.9261   8.2312  19.7660   C.2       1 RES1   0.0000
    60 H3      11.1707   7.6983  19.8686   H         1 RES1   0.0000
    61 C4      12.8162   7.9813  18.7544   C.2       1 RES1   0.0000
    62 H4      12.6737   7.2747  18.1646   H         1 RES1   0.0000
    63 C5      13.8819   8.7562  18.6213   C.2       1 RES1   0.0000
    64 C6      14.1513   9.7575  19.5013   C.2       1 RES1   0.0000
    65 H6      14.9184  10.2728  19.4070   H         1 RES1   0.0000
    66 C7      13.3081   9.9820  20.4888   C.2       1 RES1   0.0000
    67 H7      13.5052  10.6476  21.1061   H         1 RES1   0.0000
    68 C8      15.5469   9.2735  16.8152   C.2       1 RES1   0.0000
    69 C9      16.3511  11.2059  16.2460   C.2       1 RES1   0.0000
    70 C10     16.9620   9.4394  15.1647   C.2       1 RES1   0.0000
    71 C11     16.9718  13.5950  15.9160   C.2       1 RES1   0.0000
    72 C12     16.5228  14.8208  16.2966   C.2       1 RES1   0.0000
    73 H12     15.8319  14.9008  16.9173   H         1 RES1   0.0000
    74 C13     17.0869  15.9119  15.7687   C.2       1 RES1   0.0000
    75 H13     16.8586  16.7493  16.1021   H         1 RES1   0.0000
    76 C14     18.0277  15.8143  14.7153   C.2       1 RES1   0.0000
    77 C15     18.3947  14.6217  14.3799   C.2       1 RES1   0.0000
    78 H15     18.9959  14.5456  13.6762   H         1 RES1   0.0000
    79 C16     17.9829  13.4779  14.9599   C.2       1 RES1   0.0000
    80 H16     18.3537  12.6542  14.7370   H         1 RES1   0.0000
    81 C18     17.9360   7.5753  13.8717   C.2       1 RES1   0.0000
    82 C19     17.6022   6.5760  14.7036   C.2       1 RES1   0.0000
    83 H19     17.2353   6.7536  15.5374   H         1 RES1   0.0000
    84 C20     17.8208   5.2565  14.2803   C.2       1 RES1   0.0000
    85 H20     17.6237   4.5616  14.8695   H         1 RES1   0.0000
    86 C21     18.2952   4.9520  13.0712   C.2       1 RES1   0.0000
    87 C22     18.7168   5.9904  12.3106   C.2       1 RES1   0.0000
    88 H22     19.1755   5.8206  11.5205   H         1 RES1   0.0000
    89 C23     18.4806   7.2708  12.6799   C.2       1 RES1   0.0000
    90 H23     18.7012   7.9579  12.0950   H         1 RES1   0.0000
    91 In1      8.4018   9.1386  22.9201   In        1 RES1   0.0000
    92 N1      15.5293  10.5090  17.0631   N.2       1 RES1   0.0000
    93 N2      17.1162  10.7315  15.3336   N.2       1 RES1   0.0000
    94 N3      16.2340   8.6137  15.9027   N.2       1 RES1   0.0000
    95 N4      16.4018  12.5175  16.5490   N.pl3     1 RES1   0.0000
    96 H4A     15.9997  12.7186  17.2807   H         1 RES1   0.0000
    97 N5      17.7408   8.8819  14.1968   N.pl3     1 RES1   0.0000
    98 H5      18.1761   9.4452  13.7155   H         1 RES1   0.0000
    99 N6      14.7564   8.4732  17.5562   N.pl3     1 RES1   0.0000
   100 H6A     14.7935   7.6397  17.3396   H         1 RES1   0.0000
   101 O1      11.5998  10.3168  22.6215   O.co2     1 RES1   0.0000
   102 O2      10.1323   8.9385  21.6959   O.co2     1 RES1   0.0000
   103 C17     18.5313  17.0362  14.0647   C.2       1 RES1   0.0000
   104 O3      18.0293  18.1207  14.4674   O.co2     1 RES1   0.0000
   105 O4      19.3837  16.9064  13.2009   O.co2     1 RES1   0.0000
   106 C24     18.4943   3.5290  12.7304   C.2       1 RES1   0.0000
   107 O5      18.9514   3.2790  11.6324   O.co2     1 RES1   0.0000
   108 O6      18.1575   2.7344  13.5702   O.co2     1 RES1   0.0000
   109 O7       7.3196   8.7338  21.1508   O.3       1 RES1   0.0000
   110 In1      1.3577  18.8981  38.4634   In        1 RES1   0.0000
   111 In1     18.1613   0.6209  13.9100   In        1 RES1   0.0000
   112 In1     18.1613  20.1399  13.9100   In        1 RES1   0.0000
   113 In1      0.6209  18.1613  35.1968   In        1 RES1   0.0000
   114 In1     20.1399  18.1613  35.1968   In        1 RES1   0.0000
   115 In1     18.8981   1.3577  10.6434   In        1 RES1   0.0000
   116 In2     18.3633  20.6747  36.8301   In        1 RES1   0.0000
   117 In2     20.6747  18.3633  12.2767   In        1 RES1   0.0000
   118 O3       8.2698  11.1578  22.3627   O.3       1 RES1   0.0000
   119 O3      11.1578   8.2698  26.7441   O.3       1 RES1   0.0000
   120 O4       9.6242  12.3721  23.6292   O.3       1 RES1   0.0000
   121 O4      12.3721   9.6242  25.4776   O.3       1 RES1   0.0000
   122 O5       9.1919   6.4805  25.1977   O.3       1 RES1   0.0000
   123 O5       6.4805   9.1919  23.9091   O.3       1 RES1   0.0000
   124 O6       8.3980   7.0251  23.2599   O.3       1 RES1   0.0000
   125 O6       7.0251   8.3980  25.8469   O.3       1 RES1   0.0000
@<TRIPOS>BOND
     1     1     2    1
     2     1    46   un
     3     1    47   un
     4     2     3    2
     5     2    10    1
     6     3     4    1
     7     3     5    1
     8     5     6    1
     9     5     7    2
    10     7     8    1
    11     7    44    1
    12     8     9    1
    13     8    10    2
    14    10    11    1
    15    12    37    2
    16    12    39    1
    17    12    44    1
    18    13    37    1
    19    13    38    2
    20    13    40    1
    21    14    38    1
    22    14    39    2
    23    14    42    1
    24    15    16    1
    25    15    23    2
    26    15    40    1
    27    16    17    1
    28    16    18    2
    29    18    19    1
    30    18    20    1
    31    20    21    2
    32    20    48    1
    33    21    22    1
    34    21    23    1
    35    23    24    1
    36    25    26    2
    37    25    33    1
    38    25    42    1
    39    26    27    1
    40    26    28    1
    41    28    29    1
    42    28    30    2
    43    30    31    1
    44    30    51    1
    45    31    32    1
    46    31    33    2
    47    33    34    1
    48    35    47    1
    49    35    54    1
    50    35    56    1
    51    35   119    1
    52    35   122    1
    53    35   125    1
    54    36    46    1
    55    36    55    1
    56    36    56    1
    57    36   101    1
    58    36   120    1
    59    36   121    1
    60    40    41    1
    61    42    43    1
    62    44    45    1
    63    48    49   un
    64    48    50   un
    65    49   114    1
    66    50   116    1
    67    51    52   un
    68    51    53   un
    69    52   110    1
    70    53   113    1
    71    56    91    1
    72    57    58    1
    73    57   101   un
    74    57   102   un
    75    58    59    2
    76    58    66    1
    77    59    60    1
    78    59    61    1
    79    61    62    1
    80    61    63    2
    81    63    64    1
    82    63    99    1
    83    64    65    1
    84    64    66    2
    85    66    67    1
    86    68    92    2
    87    68    94    1
    88    68    99    1
    89    69    92    1
    90    69    93    2
    91    69    95    1
    92    70    93    1
    93    70    94    2
    94    70    97    1
    95    71    72    1
    96    71    79    2
    97    71    95    1
    98    72    73    1
    99    72    74    2
   100    74    75    1
   101    74    76    1
   102    76    77    2
   103    76   103    1
   104    77    78    1
   105    77    79    1
   106    79    80    1
   107    81    82    2
   108    81    89    1
   109    81    97    1
   110    82    83    1
   111    82    84    1
   112    84    85    1
   113    84    86    2
   114    86    87    1
   115    86   106    1
   116    87    88    1
   117    87    89    2
   118    89    90    1
   119    91   102    1
   120    91   109    1
   121    91   118    1
   122    91   123    1
   123    91   124    1
   124    95    96    1
   125    97    98    1
   126    99   100    1
   127   103   104   un
   128   103   105   un
   129   104   112    1
   130   105   117    1
   131   106   107   un
   132   106   108   un
   133   107   115    1
   134   108   111    1
@<TRIPOS>SUBSTRUCTURE
     1 RES1        1 GROUP             0 ****  ****    0  
@<TRIPOS>CRYSIN
   19.5190   19.5190   49.1068   90.0000   90.0000   90.0000    92     1
