####################################################################### 
# 
# This file contains crystal structure data downloaded from the 
# Cambridge Structural Database (CSD) hosted by the Cambridge 
# Crystallographic Data Centre (CCDC).
# 
# Full information about CCDC data access policies and citation 
# guidelines are available at http://www.ccdc.cam.ac.uk/access/V1 
# 
# Audit and citation data items may have been added by the CCDC. 
# Please retain this information to preserve the provenance of 
# this file and to allow appropriate attribution of the data. 
# 
#######################################################################
@<TRIPOS>MOLECULE
QOSLIW
   125   134     1     0     0
SMALL
NO_CHARGES
****
Generated from the CSD

@<TRIPOS>ATOM
     1 C1       9.5097  11.1610  27.2503   C.2       1 RES1   0.0000
     2 C2       9.2208  12.1135  28.3700   C.2       1 RES1   0.0000
     3 C3       8.2116  11.8578  29.2819   C.2       1 RES1   0.0000
     4 H3       7.7100  11.0770  29.2136   H         1 RES1   0.0000
     5 C4       7.9481  12.7498  30.2768   C.2       1 RES1   0.0000
     6 H4       7.2337  12.5878  30.8489   H         1 RES1   0.0000
     7 C5       8.7367  13.9190  30.4654   C.2       1 RES1   0.0000
     8 C6       9.7829  14.1142  29.6163   C.2       1 RES1   0.0000
     9 H6      10.3568  14.8344  29.7440   H         1 RES1   0.0000
    10 C7       9.9918  13.2456  28.5782   C.2       1 RES1   0.0000
    11 H7      10.6827  13.4252  27.9811   H         1 RES1   0.0000
    12 C8       9.2227  15.5566  32.2224   C.2       1 RES1   0.0000
    13 C9      11.2078  16.3140  32.8986   C.2       1 RES1   0.0000
    14 C10      9.4043  17.0362  33.9230   C.2       1 RES1   0.0000
    15 C11     13.6555  16.8508  33.3430   C.2       1 RES1   0.0000
    16 C12     14.8774  16.4350  33.0219   C.2       1 RES1   0.0000
    17 H12     14.9828  15.7479  32.4056   H         1 RES1   0.0000
    18 C13     15.9822  17.0069  33.5910   C.2       1 RES1   0.0000
    19 H13     16.8234  16.7200  33.3190   H         1 RES1   0.0000
    20 C14     15.8982  17.9926  34.5515   C.2       1 RES1   0.0000
    21 C15     14.6666  18.3908  34.8806   C.2       1 RES1   0.0000
    22 H15     14.5670  19.0584  35.5189   H         1 RES1   0.0000
    23 C16     13.5403  17.8482  34.3055   C.2       1 RES1   0.0000
    24 H16     12.6991  18.1488  34.5614   H         1 RES1   0.0000
    25 C18      7.5129  18.0063  35.2479   C.2       1 RES1   0.0000
    26 C19      6.4784  17.7096  34.3183   C.2       1 RES1   0.0000
    27 H19      6.6716  17.3739  33.4712   H         1 RES1   0.0000
    28 C20      5.1647  17.9399  34.7219   C.2       1 RES1   0.0000
    29 H20      4.4757  17.7779  34.1194   H         1 RES1   0.0000
    30 C21      4.8329  18.4142  36.0233   C.2       1 RES1   0.0000
    31 C22      5.8869  18.7519  36.8227   C.2       1 RES1   0.0000
    32 H22      5.7171  19.1559  37.6453   H         1 RES1   0.0000
    33 C23      7.1928  18.5177  36.4569   C.2       1 RES1   0.0000
    34 H23      7.8740  18.7148  37.0609   H         1 RES1   0.0000
    35 Fe1      9.1566   8.4547  26.1081   Fe        1 RES1   0.0000
    36 Fe2     10.8674  10.8674  24.5534   Fe        1 RES1   0.0000
    37 N1      10.5149  15.5313  32.0275   N.2       1 RES1   0.0000
    38 N2      10.7452  17.0752  33.8439   N.2       1 RES1   0.0000
    39 N3       8.5591  16.2827  33.1500   N.2       1 RES1   0.0000
    40 N4      12.5741  16.2613  32.6786   N.pl3     1 RES1   0.0000
    41 H4A     12.8006  15.7772  32.0078   H         1 RES1   0.0000
    42 N5       8.8284  17.8013  34.9056   N.pl3     1 RES1   0.0000
    43 H5       9.3906  18.2307  35.3962   H         1 RES1   0.0000
    44 N6       8.4459  14.7407  31.5438   N.pl3     1 RES1   0.0000
    45 H6A      7.6280  14.7134  31.8114   H         1 RES1   0.0000
    46 O1      10.3593  11.5308  26.3743   O.co2     1 RES1   0.0000
    47 O2       8.8874  10.0718  27.2774   O.co2     1 RES1   0.0000
    48 C17     17.0986  18.5255  35.1389   C.2       1 RES1   0.0000
    49 O3      18.2214  18.0781  34.7195   O.co2     1 RES1   0.0000
    50 O4      16.9852  19.4056  36.0203   O.co2     1 RES1   0.0000
    51 C24      3.4392  18.5567  36.3955   C.2       1 RES1   0.0000
    52 O5       3.1291  19.0537  37.4871   O.co2     1 RES1   0.0000
    53 O6       2.5915  18.1363  35.5234   O.co2     1 RES1   0.0000
    54 O7       8.8029   7.3706  27.8652   O.3       1 RES1   0.0000
    55 O8      12.2937  12.2937  24.5534   O.3       1 RES1   0.0000
    56 O9       9.5052   9.5052  24.5534   O.3       1 RES1   0.0000
    57 C1      11.1610   9.5097  21.8565   C.2       1 RES1   0.0000
    58 C2      12.1135   9.2208  20.7368   C.2       1 RES1   0.0000
    59 C3      11.8578   8.2116  19.8249   C.2       1 RES1   0.0000
    60 H3      11.0770   7.7100  19.8932   H         1 RES1   0.0000
    61 C4      12.7498   7.9481  18.8300   C.2       1 RES1   0.0000
    62 H4      12.5878   7.2337  18.2579   H         1 RES1   0.0000
    63 C5      13.9190   8.7367  18.6414   C.2       1 RES1   0.0000
    64 C6      14.1142   9.7829  19.4905   C.2       1 RES1   0.0000
    65 H6      14.8344  10.3568  19.3628   H         1 RES1   0.0000
    66 C7      13.2456   9.9918  20.5286   C.2       1 RES1   0.0000
    67 H7      13.4252  10.6827  21.1257   H         1 RES1   0.0000
    68 C8      15.5566   9.2227  16.8844   C.2       1 RES1   0.0000
    69 C9      16.3140  11.2078  16.2082   C.2       1 RES1   0.0000
    70 C10     17.0362   9.4043  15.1838   C.2       1 RES1   0.0000
    71 C11     16.8508  13.6555  15.7638   C.2       1 RES1   0.0000
    72 C12     16.4350  14.8774  16.0849   C.2       1 RES1   0.0000
    73 H12     15.7479  14.9828  16.7012   H         1 RES1   0.0000
    74 C13     17.0069  15.9822  15.5158   C.2       1 RES1   0.0000
    75 H13     16.7200  16.8234  15.7878   H         1 RES1   0.0000
    76 C14     17.9926  15.8982  14.5553   C.2       1 RES1   0.0000
    77 C15     18.3908  14.6666  14.2262   C.2       1 RES1   0.0000
    78 H15     19.0584  14.5670  13.5879   H         1 RES1   0.0000
    79 C16     17.8482  13.5403  14.8013   C.2       1 RES1   0.0000
    80 H16     18.1488  12.6991  14.5454   H         1 RES1   0.0000
    81 C18     18.0063   7.5129  13.8589   C.2       1 RES1   0.0000
    82 C19     17.7096   6.4784  14.7885   C.2       1 RES1   0.0000
    83 H19     17.3739   6.6716  15.6356   H         1 RES1   0.0000
    84 C20     17.9399   5.1647  14.3849   C.2       1 RES1   0.0000
    85 H20     17.7779   4.4757  14.9874   H         1 RES1   0.0000
    86 C21     18.4142   4.8329  13.0835   C.2       1 RES1   0.0000
    87 C22     18.7519   5.8869  12.2841   C.2       1 RES1   0.0000
    88 H22     19.1559   5.7171  11.4615   H         1 RES1   0.0000
    89 C23     18.5177   7.1928  12.6499   C.2       1 RES1   0.0000
    90 H23     18.7148   7.8740  12.0459   H         1 RES1   0.0000
    91 Fe1      8.4547   9.1566  22.9987   Fe        1 RES1   0.0000
    92 N1      15.5313  10.5149  17.0793   N.2       1 RES1   0.0000
    93 N2      17.0752  10.7452  15.2629   N.2       1 RES1   0.0000
    94 N3      16.2827   8.5591  15.9568   N.2       1 RES1   0.0000
    95 N4      16.2613  12.5741  16.4282   N.pl3     1 RES1   0.0000
    96 H4A     15.7772  12.8006  17.0990   H         1 RES1   0.0000
    97 N5      17.8013   8.8284  14.2012   N.pl3     1 RES1   0.0000
    98 H5      18.2307   9.3906  13.7106   H         1 RES1   0.0000
    99 N6      14.7407   8.4459  17.5630   N.pl3     1 RES1   0.0000
   100 H6A     14.7134   7.6280  17.2954   H         1 RES1   0.0000
   101 O1      11.5308  10.3593  22.7325   O.co2     1 RES1   0.0000
   102 O2      10.0718   8.8874  21.8294   O.co2     1 RES1   0.0000
   103 C17     18.5255  17.0986  13.9679   C.2       1 RES1   0.0000
   104 O3      18.0781  18.2214  14.3873   O.co2     1 RES1   0.0000
   105 O4      19.4056  16.9852  13.0865   O.co2     1 RES1   0.0000
   106 C24     18.5567   3.4392  12.7113   C.2       1 RES1   0.0000
   107 O5      19.0537   3.1291  11.6197   O.co2     1 RES1   0.0000
   108 O6      18.1363   2.5915  13.5834   O.co2     1 RES1   0.0000
   109 O7       7.3706   8.8029  21.2416   O.3       1 RES1   0.0000
   110 Fe1      1.3048  18.9161  38.3848   Fe        1 RES1   0.0000
   111 Fe1     18.2142   0.6029  13.8314   Fe        1 RES1   0.0000
   112 Fe1     18.2142  20.1219  13.8314   Fe        1 RES1   0.0000
   113 Fe1      0.6029  18.2142  35.2754   Fe        1 RES1   0.0000
   114 Fe1     20.1219  18.2142  35.2754   Fe        1 RES1   0.0000
   115 Fe1     18.9161   1.3048  10.7220   Fe        1 RES1   0.0000
   116 Fe2     18.4111  20.6269  36.8301   Fe        1 RES1   0.0000
   117 Fe2     20.6269  18.4111  12.2767   Fe        1 RES1   0.0000
   118 O3       8.3186  11.0571  22.4428   O.3       1 RES1   0.0000
   119 O3      11.0571   8.3186  26.6640   O.3       1 RES1   0.0000
   120 O4       9.6461  12.2933  23.7436   O.3       1 RES1   0.0000
   121 O4      12.2933   9.6461  25.3632   O.3       1 RES1   0.0000
   122 O5       9.2942   6.6304  25.2104   O.3       1 RES1   0.0000
   123 O5       6.6304   9.2942  23.8964   O.3       1 RES1   0.0000
   124 O6       8.3768   7.1680  23.2467   O.3       1 RES1   0.0000
   125 O6       7.1680   8.3768  25.8601   O.3       1 RES1   0.0000
@<TRIPOS>BOND
     1     1     2    1
     2     1    46   un
     3     1    47   un
     4     2     3    1
     5     2    10    2
     6     3     4    1
     7     3     5    2
     8     5     6    1
     9     5     7    1
    10     7     8    2
    11     7    44    1
    12     8     9    1
    13     8    10    1
    14    10    11    1
    15    12    37    2
    16    12    39    1
    17    12    44    1
    18    13    37    1
    19    13    38    2
    20    13    40    1
    21    14    38    1
    22    14    39    2
    23    14    42    1
    24    15    16    2
    25    15    23    1
    26    15    40    1
    27    16    17    1
    28    16    18    1
    29    18    19    1
    30    18    20    2
    31    20    21    1
    32    20    48    1
    33    21    22    1
    34    21    23    2
    35    23    24    1
    36    25    26    1
    37    25    33    2
    38    25    42    1
    39    26    27    1
    40    26    28    2
    41    28    29    1
    42    28    30    1
    43    30    31    2
    44    30    51    1
    45    31    32    1
    46    31    33    1
    47    33    34    1
    48    35    47    1
    49    35    54    1
    50    35    56    1
    51    35   119    1
    52    35   122    1
    53    35   125    1
    54    36    46    1
    55    36    55    1
    56    36    56    1
    57    36   101    1
    58    36   120    1
    59    36   121    1
    60    40    41    1
    61    42    43    1
    62    44    45    1
    63    48    49   un
    64    48    50   un
    65    49   114    1
    66    50   116    1
    67    51    52   un
    68    51    53   un
    69    52   110    1
    70    53   113    1
    71    56    91    1
    72    57    58    1
    73    57   101   un
    74    57   102   un
    75    58    59    1
    76    58    66    2
    77    59    60    1
    78    59    61    2
    79    61    62    1
    80    61    63    1
    81    63    64    2
    82    63    99    1
    83    64    65    1
    84    64    66    1
    85    66    67    1
    86    68    92    2
    87    68    94    1
    88    68    99    1
    89    69    92    1
    90    69    93    2
    91    69    95    1
    92    70    93    1
    93    70    94    2
    94    70    97    1
    95    71    72    2
    96    71    79    1
    97    71    95    1
    98    72    73    1
    99    72    74    1
   100    74    75    1
   101    74    76    2
   102    76    77    1
   103    76   103    1
   104    77    78    1
   105    77    79    2
   106    79    80    1
   107    81    82    1
   108    81    89    2
   109    81    97    1
   110    82    83    1
   111    82    84    2
   112    84    85    1
   113    84    86    1
   114    86    87    2
   115    86   106    1
   116    87    88    1
   117    87    89    1
   118    89    90    1
   119    91   102    1
   120    91   109    1
   121    91   118    1
   122    91   123    1
   123    91   124    1
   124    95    96    1
   125    97    98    1
   126    99   100    1
   127   103   104   un
   128   103   105   un
   129   104   112    1
   130   105   117    1
   131   106   107   un
   132   106   108   un
   133   107   115    1
   134   108   111    1
@<TRIPOS>SUBSTRUCTURE
     1 RES1        1 GROUP             0 ****  ****    0  
@<TRIPOS>CRYSIN
   19.5190   19.5190   49.1068   90.0000   90.0000   90.0000    92     1
