####################################################################### 
# 
# This file contains crystal structure data downloaded from the 
# Cambridge Structural Database (CSD) hosted by the Cambridge 
# Crystallographic Data Centre (CCDC).
# 
# Full information about CCDC data access policies and citation 
# guidelines are available at http://www.ccdc.cam.ac.uk/access/V1 
# 
# Audit and citation data items may have been added by the CCDC. 
# Please retain this information to preserve the provenance of 
# this file and to allow appropriate attribution of the data. 
# 
#######################################################################
@<TRIPOS>MOLECULE
QOBXUD
    57    63     1     0     0
SMALL
USER_CHARGES
****
Generated from the CSD

@<TRIPOS>ATOM
     1 In1      1.7259  14.1463  13.3180   In        1 RES1   0.0000
     2 O1       1.2553  16.1329  12.5546   O.co2     1 RES1  -1.0000
     3 O2       2.0308  17.8351  11.3435   O.co2     1 RES1   0.0000
     4 O3       4.8600  18.3220   5.5097   O.co2     1 RES1   0.0000
     5 O4       6.7553  17.8942   4.4674   O.co2     1 RES1   0.0000
     6 O5       0.8672  11.7184  14.5537   O.co2     1 RES1   0.0000
     7 O6       2.8306  12.3681  13.7701   O.co2     1 RES1   0.0000
     8 O7       8.2069  10.4762  11.2722   O.co2     1 RES1   0.0000
     9 O8       9.9759   9.2195  11.7413   O.co2     1 RES1   0.0000
    10 N1       3.2180  14.5303  11.6447   N.2       1 RES1   0.0000
    11 N2       8.7341   8.0196  13.7674   N.2       1 RES1   0.0000
    12 C1       2.0371  16.6594  11.7030   C.2       1 RES1   0.0000
    13 C2       3.1345  15.7661  11.1285   C.2       1 RES1   0.0000
    14 C3       4.0251  16.2175  10.1809   C.2       1 RES1   0.0000
    15 H3       3.9340  17.0754   9.8334   H         1 RES1   0.0000
    16 C4       5.0593  15.3948   9.7406   C.2       1 RES1   0.0000
    17 C5       5.1388  14.1270  10.3131   C.2       1 RES1   0.0000
    18 H5       5.8244  13.5491  10.0664   H         1 RES1   0.0000
    19 C6       4.1995  13.7236  11.2509   C.2       1 RES1   0.0000
    20 H6       4.2569  12.8691  11.6121   H         1 RES1   0.0000
    21 C7       6.0264  15.8549   8.7239   C.2       1 RES1   0.0000
    22 C8       5.6048  16.6284   7.6421   C.2       1 RES1   0.0000
    23 H8       4.7077  16.8539   7.5611   H         1 RES1   0.0000
    24 C10      7.8652  16.7365   6.8090   C.2       1 RES1   0.0000
    25 H10      8.4774  17.0377   6.1752   H         1 RES1   0.0000
    26 C11      8.2904  15.9612   7.8730   C.2       1 RES1   0.0000
    27 H11      9.1905  15.7441   7.9560   H         1 RES1   0.0000
    28 C12      7.3752  15.5049   8.8226   C.2       1 RES1   0.0000
    29 H12      7.6643  14.9667   9.5235   H         1 RES1   0.0000
    30 C13      6.5107  17.0643   6.6866   C.2       1 RES1   0.0000
    31 C14      6.0474  17.8174   5.4882   C.2       1 RES1   0.0000
    32 C15      2.0611  11.4958  14.3089   C.2       1 RES1   0.0000
    33 C16      2.6694  10.1677  14.6228   C.2       1 RES1   0.0000
    34 C17      4.0147   9.9068  14.3168   C.2       1 RES1   0.0000
    35 H17      4.5206  10.5611  13.8923   H         1 RES1   0.0000
    36 C18      4.6022   8.6952  14.6326   C.2       1 RES1   0.0000
    37 C19      3.8240   7.7126  15.2486   C.2       1 RES1   0.0000
    38 H19      4.2019   6.8930  15.4657   H         1 RES1   0.0000
    39 C20      2.4731   7.9562  15.5427   C.2       1 RES1   0.0000
    40 H20      1.9561   7.2984  15.9494   H         1 RES1   0.0000
    41 C21      1.9157   9.1745  15.2249   C.2       1 RES1   0.0000
    42 H21      1.0196   9.3318  15.4184   H         1 RES1   0.0000
    43 C22      6.0237   8.4464  14.3187   C.2       1 RES1   0.0000
    44 C23      6.6659   9.0985  13.2487   C.2       1 RES1   0.0000
    45 H23      6.1871   9.6751  12.6979   H         1 RES1   0.0000
    46 C24      8.0055   8.8770  13.0217   C.2       1 RES1   0.0000
    47 C25      8.1290   7.3602  14.7531   C.2       1 RES1   0.0000
    48 H25      8.6192   6.7446  15.2486   H         1 RES1   0.0000
    49 C26      6.7893   7.5598  15.0650   C.2       1 RES1   0.0000
    50 H26      6.4043   7.0990  15.7757   H         1 RES1   0.0000
    51 C27      8.7755   9.5938  11.9320   C.2       1 RES1   0.0000
    52 In1     10.9438   8.0036  13.3180   In        1 RES1   0.0000
    53 In1      4.7426  19.0786   3.4471   In        1 RES1   0.0000
    54 O3       1.8432  14.9029  15.3807   O.3       1 RES1   0.0000
    55 O4       3.7386  15.3306  14.3383   O.3       1 RES1   0.0000
    56 O8       0.7579  12.9304  11.7413   O.3       1 RES1   0.0000
    57 N2      -0.4838  14.1303  13.7674   N.3       1 RES1   0.0000
@<TRIPOS>BOND
     1     1     2    1
     2     1     7    1
     3     1    10    1
     4     1    54    1
     5     1    55    1
     6     1    56    1
     7     1    57    1
     8     2    12    1
     9     3    12    2
    10     4    31   un
    11     4    53    1
    12     5    31   un
    13     5    53    1
    14     6    32    2
    15     7    32    1
    16     8    51    2
    17     9    51    1
    18     9    52    1
    19    10    13    1
    20    10    19    2
    21    11    46    1
    22    11    47    2
    23    11    52    1
    24    12    13    1
    25    13    14    2
    26    14    15    1
    27    14    16    1
    28    16    17    2
    29    16    21    1
    30    17    18    1
    31    17    19    1
    32    19    20    1
    33    21    22    1
    34    21    28    2
    35    22    23    1
    36    22    30    2
    37    24    25    1
    38    24    26    2
    39    24    30    1
    40    26    27    1
    41    26    28    1
    42    28    29    1
    43    30    31    1
    44    32    33    1
    45    33    34    1
    46    33    41    2
    47    34    35    1
    48    34    36    2
    49    36    37    1
    50    36    43    1
    51    37    38    1
    52    37    39    2
    53    39    40    1
    54    39    41    1
    55    41    42    1
    56    43    44    1
    57    43    49    2
    58    44    45    1
    59    44    46    2
    60    46    51    1
    61    47    48    1
    62    47    49    1
    63    49    50    1
@<TRIPOS>SUBSTRUCTURE
     1 RES1        1 GROUP             0 ****  ****    0  
