####################################################################### 
# 
# This file contains crystal structure data downloaded from the 
# Cambridge Structural Database (CSD) hosted by the Cambridge 
# Crystallographic Data Centre (CCDC).
# 
# Full information about CCDC data access policies and citation 
# guidelines are available at http://www.ccdc.cam.ac.uk/access/V1 
# 
# Audit and citation data items may have been added by the CCDC. 
# Please retain this information to preserve the provenance of 
# this file and to allow appropriate attribution of the data. 
# 
#######################################################################
@<TRIPOS>MOLECULE
DOCQUK
    50    58     3     0     0
SMALL
USER_CHARGES
****
Generated from the CSD

@<TRIPOS>ATOM
     1 Zr1      6.1327   2.5946   5.0491   Zr        1 RES1   0.0000
     2 P1       2.9178   2.2457   4.1562   P.3       1 RES1   0.0000
     3 P2       4.6691   3.8756   2.2818   P.3       1 RES1   0.0000
     4 O1       4.0531   2.5459   5.1207   O.co2     1 RES1  -1.0000
     5 O2       5.7700   3.1643   3.0711   O.co2     1 RES1  -1.0000
     6 F1B      6.2931   1.7648   6.7720   F         1 RES1   0.0000
     7 C1B      3.2720   2.9211   2.4546   C.3       1 RES1   0.0000
     8 H1B1     3.3389   2.1740   1.8397   H         1 RES1   0.0000
     9 H1B2     2.5084   3.4541   2.1760   H         1 RES1   0.0000
    10 O3B      5.0782   3.7663   0.8355   O.co2     1 RES1   0.0000
    11 O4B      2.8156   0.7625   4.0976   O.co2     1 RES1   0.0000
    12 O5B      1.5897   2.8807   4.7075   O.co2     1 RES1   0.0000
    13 O6B      4.7956   5.3220   2.4661   O.co2     1 RES1   0.0000
    14 Zr1     -0.4147   2.5946   5.0491   Zr        1 RES1   0.0000
    15 Zr1      2.9234  -1.1223   3.2154   Zr        1 RES1   0.0000
    16 Zr1      4.7017   7.2128   3.2154   Zr        1 RES1   0.0000
    17 O4B      6.2406   0.7098   4.1670   O.3       1 RES1   0.0000
    18 O5B      8.1371   2.8807   4.7075   O.3       1 RES1   0.0000
    19 O6B      6.0388   4.4854   5.7984   O.3       1 RES1   0.0000
    20 N1       8.3150   1.4635   8.6364   N.2       2 RES2   1.0000
    21 H1A      7.5694   1.7780   8.2637   H         2 RES2   0.0000
    22 H1AB     8.2031   1.3351   9.5067   H         2 RES2   0.0000
    23 C3       8.9060   0.1778   7.8761   C.3       2 RES2   0.0000
    24 H3A      8.1838  -0.3468   7.5282   H         2 RES2   0.0000
    25 H3B      9.4213  -0.3453   8.4910   H         2 RES2   0.0000
    26 H3C      9.4695   0.4679   7.1513   H         2 RES2   0.0000
    27 C4       9.6087   2.3435   8.2893   C.3       2 RES2   0.0000
    28 H4A      9.3642   3.2683   8.2356   H         2 RES2   0.0000
    29 H4B      9.9709   2.0601   7.4422   H         2 RES2   0.0000
    30 H4C     10.2705   2.2234   8.9720   H         2 RES2   0.0000
    31 N1       9.7973   1.4810   7.8926   N.2       2 RES2   1.0000
    32 H1A     10.5429   1.1665   8.2654   H         2 RES2   0.0000
    33 H1AB     9.9092   1.6094   7.0224   H         2 RES2   0.0000
    34 C3       9.2063   2.7667   8.6530   C.3       2 RES2   0.0000
    35 H3A      9.9285   3.2913   9.0009   H         2 RES2   0.0000
    36 H3B      8.6911   3.2898   8.0381   H         2 RES2   0.0000
    37 H3C      8.6429   2.4766   9.3778   H         2 RES2   0.0000
    38 C4       8.5036   0.6010   8.2397   C.3       2 RES2   0.0000
    39 H4A      8.7481  -0.3238   8.2935   H         2 RES2   0.0000
    40 H4B      8.1415   0.8844   9.0868   H         2 RES2   0.0000
    41 H4C      7.8418   0.7211   7.5571   H         2 RES2   0.0000
    42 F1A?     6.0849   2.4174   7.0662   F         3 RES3   0.0000
    43 C1A?     2.9429   3.5635   3.0661   C.3       3 RES3   0.0000
    44 H1A1?    2.6690   4.3675   3.5413   H         3 RES3   0.0000
    45 H1A2?    2.3027   3.4046   2.3612   H         3 RES3   0.0000
    46 O3A?     4.5126   3.5514   0.7521   O.3       3 RES3   0.0000
    47 O4A?     3.0476   0.9424   3.3719   O.3       3 RES3   0.0000
    48 O5A?     1.6230   2.2439   4.8761   O.3       3 RES3   0.0000
    49 O6A?     4.2862   5.2472   2.9256   O.3       3 RES3   0.0000
    50 H30A?    4.1628   4.1676   0.0000   H         3 RES3   0.0000
@<TRIPOS>BOND
     1     1     4    1
     2     1     5    1
     3     1     6    1
     4     1    17    1
     5     1    18    1
     6     1    19    1
     7     2     4    1
     8     2     7    1
     9     2    11   un
    10     2    12   un
    11     3     5    1
    12     3     7    1
    13     3    10    2
    14     3    13    1
    15     7     8    1
    16     7     9    1
    17    11    15    1
    18    12    14    1
    19    13    16    1
    20    20    21    1
    21    20    22    1
    22    20    23    1
    23    20    27    1
    24    20    31    1
    25    20    34    1
    26    20    37    1
    27    20    38    1
    28    20    40    1
    29    23    24    1
    30    23    25    1
    31    23    26    1
    32    23    31    1
    33    23    38    1
    34    23    39    1
    35    23    41    1
    36    24    38    1
    37    25    38    1
    38    26    31    1
    39    27    28    1
    40    27    29    1
    41    27    30    1
    42    27    31    1
    43    27    34    1
    44    27    35    1
    45    27    36    1
    46    28    34    1
    47    29    31    1
    48    30    34    1
    49    31    32    1
    50    31    33    1
    51    31    34    1
    52    31    38    1
    53    34    35    1
    54    34    36    1
    55    34    37    1
    56    38    39    1
    57    38    40    1
    58    38    41    1
@<TRIPOS>SUBSTRUCTURE
     1 RES1        1 GROUP             0 ****  ****    0  
     2 RES2       20 GROUP             0 ****  ****    0  
     3 RES3       42 GROUP             0 ****  ****    0  
@<TRIPOS>CRYSIN
    6.5474    8.5227    8.7615   77.0510   73.3610   77.9570     2     1
