####################################################################### 
# 
# This file contains crystal structure data downloaded from the 
# Cambridge Structural Database (CSD) hosted by the Cambridge 
# Crystallographic Data Centre (CCDC).
# 
# Full information about CCDC data access policies and citation 
# guidelines are available at http://www.ccdc.cam.ac.uk/access/V1 
# 
# Audit and citation data items may have been added by the CCDC. 
# Please retain this information to preserve the provenance of 
# this file and to allow appropriate attribution of the data. 
# 
#######################################################################
@<TRIPOS>MOLECULE
DOCQOE
    44    30     6     0     0
SMALL
USER_CHARGES
****
Generated from the CSD

@<TRIPOS>ATOM
     1 Zr1      1.1454   0.2936   7.7864   Zr        1 RES1   4.0000
     2 P1       1.2220   3.4773   9.3440   P.3       1 RES1   0.0000
     3 P2      -0.6654   4.8727   7.3743   P.3       1 RES1   0.0000
     4 O1      -0.8892   6.3585   7.0283   O.co2     1 RES1  -1.0000
     5 O2       0.0708   3.4127  10.3378   O.co2     1 RES1  -1.0000
     6 O3       2.5162   3.7771  10.0948   O.co2     1 RES1  -1.0000
     7 O4      -1.7322   4.4150   8.3790   O.co2     1 RES1  -1.0000
     8 O5      -0.6152   4.0141   6.1483   O.co2     1 RES1   0.0000
     9 O6       1.3280   2.2169   8.5209   O.co2     1 RES1   0.0000
    10 C2       0.8906   4.8571   8.2598   C.3       1 RES1   0.0000
    11 H2A      1.6203   4.8992   7.5912   H         1 RES1   0.0000
    12 H2B      0.9411   5.6859   8.7992   H         1 RES1   0.0000
    13 Zr1     -0.7811   8.2815   7.7864   Zr        1 RES1   0.0000
    14 Zr1     -1.9974   3.6428  10.2835   Zr        1 RES1   0.0000
    15 Zr1      4.5764   3.6428  10.2835   Zr        1 RES1   0.0000
    16 O1       1.0373  -1.6293   7.0283   O.3       1 RES1   0.0000
    17 O2      -0.9228   0.5238   7.7321   O.3       1 RES1   0.0000
    18 O3       3.2057   0.1594   7.9752   O.3       1 RES1   0.0000
    19 O4       0.8803  -0.4785   9.6909   O.3       1 RES1   0.0000
    20 Sr1      1.3110   3.1148   4.6587   Sr        2 RES2   2.0000
    21 F1       1.2218   1.0223   5.9324   F         3 RES3  -1.0000
    22 C3      -0.9733   0.8818   3.4062   C.3       4 RES4   0.0000
    23 H3A     -1.4045   0.5473   2.5894   H         4 RES4   0.0000
    24 H3B     -1.4739   0.5738   4.1886   H         4 RES4   0.0000
    25 H3C     -0.0549   0.5446   3.4496   H         4 RES4   0.0000
    26 C1      -1.7825   3.7073   3.4875   C.3       4 RES4   0.0000
    27 H1A     -1.6302   4.2615   2.6933   H         4 RES4   0.0000
    28 H1B     -1.5169   4.2020   4.2880   H         4 RES4   0.0000
    29 H1C     -2.7365   3.4802   3.5453   H         4 RES4   0.0000
    30 N1      -0.9517   2.4136   3.3791   N.3       4 RES4   0.0000
    31 H1E     -0.3167   2.5787   4.0070   H         4 RES4   0.0000
    32 O4W     -2.6633   0.0047   4.8599   O.3       5 RES5   0.0000
    33 H4WA    -3.1366  -0.7254   4.9349   H         5 RES5   0.0000
    34 H4WB    -2.0255  -0.2110   4.3079   H         5 RES5   0.0000
    35 O1S?    -0.4328   0.5710   3.7947   O.3       6 RES6   0.0000
    36 H3SA?   -1.4500   3.4358   2.3003   H         6 RES6   0.0000
    37 H3SB?   -1.1378   4.0735   3.7351   H         6 RES6   0.0000
    38 O2S?    -0.7358   1.9003   3.7089   O.3       6 RES6   0.0000
    39 H2SA?    0.0096   2.0985   3.2309   H         6 RES6   0.0000
    40 H2SB?   -0.5238   2.1468   4.5581   H         6 RES6   0.0000
    41 O3S?    -1.6324   3.2417   3.0701   O.3       6 RES6   0.0000
    42 H1SA?    0.3899   0.3552   3.7134   H         6 RES6   0.0000
    43 H1SB?   -1.2478   0.1366   4.1931   H         6 RES6   0.0000
    44 H1D?    -0.5318   2.5585   2.5867   H         6 RES6   0.0000
@<TRIPOS>BOND
     1     1     9    1
     2     1    16    1
     3     1    17    1
     4     1    18    1
     5     1    19    1
     6     2     5    1
     7     2     6   un
     8     2     9   un
     9     2    10    1
    10     3     4    1
    11     3     7    1
    12     3     8    2
    13     3    10    1
    14     4    13    1
    15     5    14    1
    16     6    15    1
    17     7    14    1
    18    10    11    1
    19    10    12    1
    20    22    23    1
    21    22    24    1
    22    22    25    1
    23    22    30    1
    24    26    27    1
    25    26    28    1
    26    26    29    1
    27    26    30    1
    28    30    31    1
    29    32    33    1
    30    32    34    1
@<TRIPOS>SUBSTRUCTURE
     1 RES1        1 GROUP             0 ****  ****    0  
     2 RES2       20 GROUP             0 ****  ****    0  
     3 RES3       21 GROUP             0 ****  ****    0  
     4 RES4       22 GROUP             0 ****  ****    0  
     5 RES5       32 GROUP             0 ****  ****    0  
     6 RES6       35 GROUP             0 ****  ****    0  
@<TRIPOS>CRYSIN
    6.5738    8.2169    9.6589   97.8820  106.5390  103.5600     2     1
