####################################################################### 
# 
# This file contains crystal structure data downloaded from the 
# Cambridge Structural Database (CSD) hosted by the Cambridge 
# Crystallographic Data Centre (CCDC).
# 
# Full information about CCDC data access policies and citation 
# guidelines are available at http://www.ccdc.cam.ac.uk/access/V1 
# 
# Audit and citation data items may have been added by the CCDC. 
# Please retain this information to preserve the provenance of 
# this file and to allow appropriate attribution of the data. 
# 
#######################################################################
@<TRIPOS>MOLECULE
DOCQEU
    42    30     3     0     0
SMALL
USER_CHARGES
****
Generated from the CSD

@<TRIPOS>ATOM
     1 Zr1     -1.0931   4.6329   5.9442   Zr        1 RES1   0.0000
     2 P2       2.2589   4.8194   4.9885   P.3       1 RES1   0.0000
     3 P1       4.1742   3.3094   3.0606   P.3       1 RES1   0.0000
     4 F1      -1.0739   5.1735   7.8412   F         1 RES1   0.0000
     5 O6       3.4057   4.8636   5.9957   O.co2     1 RES1  -1.0000
     6 O5       5.2021   3.9715   3.9895   O.co2     1 RES1   0.0000
     7 O4       2.1493   6.0986   4.1891   O.co2     1 RES1   0.0000
     8 O3       0.9564   4.4958   5.7231   O.co2     1 RES1   0.0000
     9 O2       4.4455   1.7973   2.9843   O.co2     1 RES1   0.0000
    10 O1       4.1293   3.9168   1.7012   O.co2     1 RES1   0.0000
    11 C3       2.5680   3.4362   3.8894   C.3       1 RES1   0.0000
    12 H3A      1.8846   3.4522   3.2008   H         1 RES1   0.0000
    13 H3B      2.4373   2.6224   4.4000   H         1 RES1   0.0000
    14 Zr2      5.4880   4.6329   5.9442   Zr        1 RES1   0.0000
    15 Zr3      4.2882  -0.1659   3.5816   Zr        1 RES1   0.0000
    16 Zr4      2.2935   8.0855   3.5816   Zr        1 RES1   0.0000
    17 O7      -3.1754   4.8636   5.9957   O.3       1 RES1   0.0000
    18 O8      -1.3790   3.9715   3.9895   O.3       1 RES1   0.0000
    19 O9      -0.9488   6.6197   5.3367   O.3       1 RES1   0.0000
    20 O10     -1.2504   2.6697   6.5416   O.3       1 RES1   0.0000
    21 C1A     -3.9042   2.4511   8.8323   C.3       2 RES2   0.0000
    22 H1AA    -4.8512   2.2923   8.8266   H         2 RES2   0.0000
    23 H1AB    -3.7176   3.2875   8.3997   H         2 RES2   0.0000
    24 H1AC    -3.4580   1.7420   8.3643   H         2 RES2   0.0000
    25 N1      -3.4694   2.4958  10.0907   N.4       2 RES2   1.0000
    26 H1A     -3.6696   1.7244  10.4877   H         2 RES2   0.0000
    27 H1B     -3.9075   3.1402  10.5202   H         2 RES2   0.0000
    28 C2A     -1.9009   2.7550  10.2441   C.3       2 RES2   0.0000
    29 H2AA    -1.6690   2.7730  11.1754   H         2 RES2   0.0000
    30 H2AB    -1.4158   2.0520   9.8066   H         2 RES2   0.0000
    31 H2AC    -1.6754   3.5975   9.8420   H         2 RES2   0.0000
    32 C2B?    -2.1503   2.9390  10.0821   C.3       3 RES3   0.0000
    33 H2BA?   -1.3799   2.6527  10.5783   H         3 RES3   0.0000
    34 H2BB?   -1.8736   3.5180   9.3679   H         3 RES3   0.0000
    35 H2BC?   -2.7479   3.4134  10.6650   H         3 RES3   0.0000
    36 N2?     -2.7871   1.8523   9.5649   N.3       3 RES3   1.0000
    37 H2A?    -3.0131   1.3139  10.2366   H         3 RES3   0.0000
    38 H2B?    -2.2129   1.4096   9.0494   H         3 RES3   0.0000
    39 C1B?    -4.1073   2.1650   8.7009   C.3       3 RES3   0.0000
    40 H1BA?   -4.4826   1.3413   8.3810   H         3 RES3   0.0000
    41 H1BB?   -4.7503   2.6176   9.2510   H         3 RES3   0.0000
    42 H1BC?   -3.8760   2.7222   7.9539   H         3 RES3   0.0000
@<TRIPOS>BOND
     1     1     4    1
     2     1     8    1
     3     1    17    1
     4     1    18    1
     5     1    19    1
     6     1    20    1
     7     2     5    1
     8     2     7   un
     9     2     8   un
    10     2    11    1
    11     3     6    1
    12     3     9    1
    13     3    10    2
    14     3    11    1
    15     5    14    1
    16     6    14    1
    17     7    16    1
    18     9    15    1
    19    11    12    1
    20    11    13    1
    21    21    22    1
    22    21    23    1
    23    21    24    1
    24    21    25    1
    25    25    26    1
    26    25    27    1
    27    25    28    1
    28    28    29    1
    29    28    30    1
    30    28    31    1
@<TRIPOS>SUBSTRUCTURE
     1 RES1        1 GROUP             0 ****  ****    0  
     2 RES2       21 GROUP             0 ****  ****    0  
     3 RES3       32 GROUP             0 ****  ****    0  
@<TRIPOS>CRYSIN
    6.5811    8.4890   10.3440  108.9050   97.7300  103.5900     2     1
