####################################################################### 
# 
# This file contains crystal structure data downloaded from the 
# Cambridge Structural Database (CSD) hosted by the Cambridge 
# Crystallographic Data Centre (CCDC).
# 
# Full information about CCDC data access policies and citation 
# guidelines are available at http://www.ccdc.cam.ac.uk/access/V1 
# 
# Audit and citation data items may have been added by the CCDC. 
# Please retain this information to preserve the provenance of 
# this file and to allow appropriate attribution of the data. 
# 
#######################################################################
@<TRIPOS>MOLECULE
KOJZAN
   159   178     1     0     0
SMALL
USER_CHARGES
****
Generated from the CSD

@<TRIPOS>ATOM
     1 In1     33.4407  16.3513   4.2888   In        1 RES1   0.0000
     2 In2     15.8804  15.3277   4.3706   In        1 RES1   0.0000
     3 O1      15.9394   0.2217   4.5557   O.co2     1 RES1   0.0000
     4 O2      15.7698  -0.7436   2.5412   O.co2     1 RES1   0.0000
     5 O3      11.1654   6.5230  -0.8022   O.3       1 RES1   0.0000
     6 O4       3.8279   9.7715  -5.3020   O.co2     1 RES1   0.0000
     7 O5       4.6055   9.5219  -7.2560   O.co2     1 RES1   0.0000
     8 O6      17.4704  10.5063  -7.0364   O.co2     1 RES1  -1.0000
     9 O7      18.3108  10.6634  -5.0823   O.co2     1 RES1   0.0000
    10 O8      15.8206  13.1788   4.5759   O.co2     1 RES1   0.0000
    11 O9      15.5981  13.8927   2.6443   O.co2     1 RES1  -1.0000
    12 O10     17.3040  15.2874   6.0325   O.co2     1 RES1   0.0000
    13 O11     18.1810  15.4183   4.0336   O.co2     1 RES1   0.0000
    14 O12     24.4681  18.4136  10.7921   O.3       1 RES1   0.0000
    15 O13     29.4999  11.2814  13.7165   O.co2     1 RES1   0.0000
    16 O14     29.6797  12.1855  15.7826   O.co2     1 RES1   0.0000
    17 O15     29.3285  25.0553  15.7266   O.co2     1 RES1   0.0000
    18 O16     29.2795  25.8251  13.7680   O.co2     1 RES1   0.0000
    19 O17     32.0308  16.2474   6.1020   O.co2     1 RES1   0.0000
    20 O18     31.2674  16.2020   4.1681   O.co2     1 RES1   0.0000
    21 C1       4.7943   9.5166  -6.0078   C.2       1 RES1   0.0000
    22 C2       6.1570   9.2181  -5.4185   C.2       1 RES1   0.0000
    23 C3       6.2262   9.1675  -4.1681   C.2       1 RES1   0.0000
    24 H3       5.4731   9.3213  -3.6448   H         1 RES1   0.0000
    25 C4       7.5599   8.8533  -3.5249   C.2       1 RES1   0.0000
    26 H4       7.6410   8.8196  -2.5996   H         1 RES1   0.0000
    27 C5       8.5960   8.6316  -4.2913   C.2       1 RES1   0.0000
    28 C6       8.4752   8.6421  -5.6963   C.2       1 RES1   0.0000
    29 H6       9.2000   8.4474  -6.2453   H         1 RES1   0.0000
    30 C7       7.2521   8.9476  -6.2140   C.2       1 RES1   0.0000
    31 H7       7.1537   8.9750  -7.1385   H         1 RES1   0.0000
    32 C8       9.9362   8.2913  -3.6773   C.2       1 RES1   0.0000
    33 C9       9.9439   7.5878  -2.5120   C.2       1 RES1   0.0000
    34 H9       9.1594   7.2995  -2.1038   H         1 RES1   0.0000
    35 C10     11.1888   7.3295  -1.9765   C.2       1 RES1   0.0000
    36 C11     12.3982   7.7711  -2.5255   C.2       1 RES1   0.0000
    37 H11     13.2179   7.5729  -2.1302   H         1 RES1   0.0000
    38 C12     12.3225   8.4484  -3.5742   C.2       1 RES1   0.0000
    39 C13     11.0663   8.7922  -4.1479   C.2       1 RES1   0.0000
    40 H13     11.0380   9.3801  -4.8671   H         1 RES1   0.0000
    41 C14     13.5651   8.9808  -4.2196   C.2       1 RES1   0.0000
    42 C15     13.8055   9.2199  -5.5776   C.2       1 RES1   0.0000
    43 H15     13.1196   9.0056  -6.1692   H         1 RES1   0.0000
    44 C16     14.9591   9.7453  -6.1266   C.2       1 RES1   0.0000
    45 H16     15.0284   9.9272  -7.0374   H         1 RES1   0.0000
    46 C17     16.0374   9.9949  -5.2392   C.2       1 RES1   0.0000
    47 C18     15.8697   9.8675  -3.8588   C.2       1 RES1   0.0000
    48 H18     16.5335  10.1525  -3.2735   H         1 RES1   0.0000
    49 C19     14.7249   9.3246  -3.3860   C.2       1 RES1   0.0000
    50 H19     14.6679   9.1580  -2.4728   H         1 RES1   0.0000
    51 C20     17.3692  10.4697  -5.7681   C.2       1 RES1   0.0000
    52 C21     12.2787   6.5929   0.0852   C.2       1 RES1   0.0000
    53 C22     12.7759   5.4059   0.5289   C.2       1 RES1   0.0000
    54 H22     12.4113   4.6028   0.2337   H         1 RES1   0.0000
    55 C23     13.8535   5.4111   1.4387   C.2       1 RES1   0.0000
    56 C24     14.3207   6.5632   1.8174   C.2       1 RES1   0.0000
    57 H24     15.0478   6.5483   2.3976   H         1 RES1   0.0000
    58 C25     13.8492   7.8217   1.4409   C.2       1 RES1   0.0000
    59 C26     12.7698   7.7851   0.5871   C.2       1 RES1   0.0000
    60 H26     12.3578   8.5828   0.3439   H         1 RES1   0.0000
    61 C27     14.4482   4.1334   1.8734   C.2       1 RES1   0.0000
    62 C28     14.3867   2.9761   0.9658   C.2       1 RES1   0.0000
    63 H28     14.0073   3.0182   0.1185   H         1 RES1   0.0000
    64 C29     14.9844   1.7333   1.5238   C.2       1 RES1   0.0000
    65 H29     15.1000   0.9878   0.9807   H         1 RES1   0.0000
    66 C30     15.3635   1.6914   2.8280   C.2       1 RES1   0.0000
    67 C31     15.4496   2.7806   3.6235   C.2       1 RES1   0.0000
    68 H31     15.8436   2.7210   4.4647   H         1 RES1   0.0000
    69 C32     14.9547   3.9676   3.1731   C.2       1 RES1   0.0000
    70 H32     14.9514   4.6975   3.7485   H         1 RES1   0.0000
    71 C33     15.6510   0.2828   3.3837   C.2       1 RES1   0.0000
    72 C34     14.3422   9.0645   1.8868   C.2       1 RES1   0.0000
    73 C35     14.2740  10.2515   1.1003   C.2       1 RES1   0.0000
    74 H35     13.9411  10.1983   0.2324   H         1 RES1   0.0000
    75 C36     14.6739  11.4524   1.5731   C.2       1 RES1   0.0000
    76 H36     14.6077  12.2018   1.0268   H         1 RES1   0.0000
    77 C37     15.1909  11.5938   2.8930   C.2       1 RES1   0.0000
    78 C38     15.3394  10.4348   3.6594   C.2       1 RES1   0.0000
    79 H38     15.7428  10.4849   4.4962   H         1 RES1   0.0000
    80 C39     14.8984   9.2112   3.1843   C.2       1 RES1   0.0000
    81 H39     14.9696   8.4637   3.7331   H         1 RES1   0.0000
    82 C40     15.5156  12.8680   3.4420   C.2       1 RES1   0.0000
    83 C41     18.3279  15.4497   5.3020   C.2       1 RES1   0.0000
    84 C42     19.6121  15.6033   5.9160   C.2       1 RES1   0.0000
    85 C43     19.8012  15.5474   7.2851   C.2       1 RES1   0.0000
    86 H43     19.0742  15.3189   7.8215   H         1 RES1   0.0000
    87 C44     20.9825  15.8110   7.8835   C.2       1 RES1   0.0000
    88 H44     21.0544  15.7230   8.8072   H         1 RES1   0.0000
    89 C45     22.1104  16.2142   7.1350   C.2       1 RES1   0.0000
    90 C46     21.9987  16.2195   5.8151   C.2       1 RES1   0.0000
    91 H46     22.7423  16.4205   5.2941   H         1 RES1   0.0000
    92 C47     20.7338  15.9123   5.1653   C.2       1 RES1   0.0000
    93 H47     20.6758  15.9260   4.2372   H         1 RES1   0.0000
    94 C48     23.3687  16.6593   7.7737   C.2       1 RES1   0.0000
    95 C49     24.5695  16.3521   7.1686   C.2       1 RES1   0.0000
    96 H49     24.5639  15.8192   6.4056   H         1 RES1   0.0000
    97 C50     25.7898  16.8129   7.6639   C.2       1 RES1   0.0000
    98 C51     25.7759  17.4588   8.9120   C.2       1 RES1   0.0000
    99 H51     26.5810  17.7140   9.2990   H         1 RES1   0.0000
   100 C52     24.5323  17.7381   9.6112   C.2       1 RES1   0.0000
   101 C53     23.3820  17.2685   9.0039   C.2       1 RES1   0.0000
   102 H53     22.5741  17.3725   9.4524   H         1 RES1   0.0000
   103 C54     27.1006  16.5459   7.1148   C.2       1 RES1   0.0000
   104 C55     27.3041  16.5930   5.7322   C.2       1 RES1   0.0000
   105 H55     26.5571  16.7761   5.2089   H         1 RES1   0.0000
   106 C56     28.4745  16.4010   5.0734   C.2       1 RES1   0.0000
   107 H56     28.5244  16.3713   4.1463   H         1 RES1   0.0000
   108 C57     29.6689  16.2387   5.9384   C.2       1 RES1   0.0000
   109 C58     29.5066  16.1112   7.3434   C.2       1 RES1   0.0000
   110 H58     30.2327  15.9016   7.8872   H         1 RES1   0.0000
   111 C59     28.2548  16.3067   7.8835   C.2       1 RES1   0.0000
   112 H59     28.1680  16.2791   8.8085   H         1 RES1   0.0000
   113 C60     30.9841  16.1723   5.2952   C.2       1 RES1   0.0000
   114 C61     25.6091  18.3700  11.5585   C.2       1 RES1   0.0000
   115 C62     26.1060  19.7297  11.8812   C.2       1 RES1   0.0000
   116 H62     25.7210  20.4978  11.5263   H         1 RES1   0.0000
   117 C63     27.2069  19.7716  12.7641   C.2       1 RES1   0.0000
   118 C64     27.8969  18.6458  13.1249   C.2       1 RES1   0.0000
   119 H64     28.6870  18.7227  13.6090   H         1 RES1   0.0000
   120 C65     27.3742  17.2581  12.7350   C.2       1 RES1   0.0000
   121 C66     26.1974  17.2615  11.9103   C.2       1 RES1   0.0000
   122 H66     25.8450  16.4503  11.6215   H         1 RES1   0.0000
   123 C67     27.7319  21.1035  13.1271   C.2       1 RES1   0.0000
   124 C68     27.7150  22.2136  12.3742   C.2       1 RES1   0.0000
   125 H68     27.4129  22.1361  11.4981   H         1 RES1   0.0000
   126 C69     28.0794  23.3674  12.7776   C.2       1 RES1   0.0000
   127 H69     27.9027  24.1055  12.2399   H         1 RES1   0.0000
   128 C70     28.7567  23.5664  14.0280   C.2       1 RES1   0.0000
   129 C71     28.7959  22.4597  14.8885   C.2       1 RES1   0.0000
   130 H71     29.0967  22.5740  15.7610   H         1 RES1   0.0000
   131 C72     28.3911  21.1820  14.4605   C.2       1 RES1   0.0000
   132 H72     28.5312  20.4246  14.9828   H         1 RES1   0.0000
   133 C73     29.1928  24.9192  14.5882   C.2       1 RES1   0.0000
   134 C74     28.0150  16.0781  13.1675   C.2       1 RES1   0.0000
   135 C75     28.0020  14.9435  12.3832   C.2       1 RES1   0.0000
   136 H75     27.6474  15.0208  11.5276   H         1 RES1   0.0000
   137 C76     28.4630  13.7216  12.7596   C.2       1 RES1   0.0000
   138 H76     28.4588  12.9981  12.1759   H         1 RES1   0.0000
   139 C77     28.9575  13.6064  14.0840   C.2       1 RES1   0.0000
   140 C78     29.0628  14.7777  14.8033   C.2       1 RES1   0.0000
   141 H78     29.4612  14.7341  15.6430   H         1 RES1   0.0000
   142 C79     28.6573  15.9245  14.3977   C.2       1 RES1   0.0000
   143 H79     28.7927  16.6707  14.9370   H         1 RES1   0.0000
   144 C80     29.4920  12.2362  14.5210   C.2       1 RES1   0.0000
   145 In1      2.3524   9.8317  -6.9156   In        1 RES1   0.0000
   146 In1     29.5829   9.8317  15.4933   In        1 RES1   0.0000
   147 In1     29.5829  27.2870  15.4933   In        1 RES1   0.0000
   148 In2     15.8804  -2.1276   4.3706   In        1 RES1   0.0000
   149 In2     19.7382  10.8553  -6.8338   In        1 RES1   0.0000
   150 O1      15.9394  17.6770   4.5557   O.3       1 RES1   0.0000
   151 O2      15.7698  16.7117   2.5412   O.3       1 RES1   0.0000
   152 O4      34.9161  16.4115   5.9025   O.3       1 RES1   0.0000
   153 O5      35.6938  16.6611   3.9485   O.3       1 RES1   0.0000
   154 O6      13.6127  15.6766   4.1681   O.3       1 RES1   0.0000
   155 O7      14.4530  15.5195   6.1221   O.3       1 RES1   0.0000
   156 O13     33.3577  14.9016   2.5120   O.3       1 RES1   0.0000
   157 O14     33.5374  13.9974   4.5781   O.3       1 RES1   0.0000
   158 O15     33.1863  18.5829   4.5221   O.3       1 RES1   0.0000
   159 O16     33.1373  17.8131   2.5636   O.3       1 RES1   0.0000
@<TRIPOS>BOND
     1     1    19    1
     2     1    20    1
     3     1   152    1
     4     1   153    1
     5     1   156    1
     6     1   157    1
     7     1   158    1
     8     1   159    1
     9     2    10    1
    10     2    11    1
    11     2    12    1
    12     2    13    1
    13     2   150    1
    14     2   151    1
    15     2   154    1
    16     2   155    1
    17     3    71   un
    18     3   148    1
    19     4    71   un
    20     4   148    1
    21     5    35    1
    22     5    52    1
    23     6    21   un
    24     6   145    1
    25     7    21   un
    26     7   145    1
    27     8    51   un
    28     8   149    1
    29     9    51   un
    30     9   149    1
    31    10    82   un
    32    11    82   un
    33    12    83   un
    34    13    83   un
    35    14   100    1
    36    14   114    1
    37    15   144   un
    38    15   146    1
    39    16   144   un
    40    16   146    1
    41    17   133   un
    42    17   147    1
    43    18   133   un
    44    18   147    1
    45    19   113   un
    46    20   113   un
    47    21    22    1
    48    22    23    2
    49    22    30    1
    50    23    24    1
    51    23    25    1
    52    25    26    1
    53    25    27    2
    54    27    28    1
    55    27    32    1
    56    28    29    1
    57    28    30    2
    58    30    31    1
    59    32    33    1
    60    32    39    2
    61    33    34    1
    62    33    35    2
    63    35    36    1
    64    36    37    1
    65    36    38    2
    66    38    39    1
    67    38    41    1
    68    39    40    1
    69    41    42    2
    70    41    49    1
    71    42    43    1
    72    42    44    1
    73    44    45    1
    74    44    46    2
    75    46    47    1
    76    46    51    1
    77    47    48    1
    78    47    49    2
    79    49    50    1
    80    52    53    2
    81    52    59    1
    82    53    54    1
    83    53    55    1
    84    55    56    2
    85    55    61    1
    86    56    57    1
    87    56    58    1
    88    58    59    2
    89    58    72    1
    90    59    60    1
    91    61    62    2
    92    61    69    1
    93    62    63    1
    94    62    64    1
    95    64    65    1
    96    64    66    2
    97    66    67    1
    98    66    71    1
    99    67    68    1
   100    67    69    2
   101    69    70    1
   102    72    73    1
   103    72    80    2
   104    73    74    1
   105    73    75    2
   106    75    76    1
   107    75    77    1
   108    77    78    2
   109    77    82    1
   110    78    79    1
   111    78    80    1
   112    80    81    1
   113    83    84    1
   114    84    85    1
   115    84    92    2
   116    85    86    1
   117    85    87    2
   118    87    88    1
   119    87    89    1
   120    89    90    2
   121    89    94    1
   122    90    91    1
   123    90    92    1
   124    92    93    1
   125    94    95    2
   126    94   101    1
   127    95    96    1
   128    95    97    1
   129    97    98    2
   130    97   103    1
   131    98    99    1
   132    98   100    1
   133   100   101    2
   134   101   102    1
   135   103   104    1
   136   103   111    2
   137   104   105    1
   138   104   106    2
   139   106   107    1
   140   106   108    1
   141   108   109    2
   142   108   113    1
   143   109   110    1
   144   109   111    1
   145   111   112    1
   146   114   115    1
   147   114   121    2
   148   115   116    1
   149   115   117    2
   150   117   118    1
   151   117   123    1
   152   118   119    1
   153   118   120    2
   154   120   121    1
   155   120   134    1
   156   121   122    1
   157   123   124    1
   158   123   131    2
   159   124   125    1
   160   124   126    2
   161   126   127    1
   162   126   128    1
   163   128   129    2
   164   128   133    1
   165   129   130    1
   166   129   131    1
   167   131   132    1
   168   134   135    2
   169   134   142    1
   170   135   136    1
   171   135   137    1
   172   137   138    1
   173   137   139    2
   174   139   140    1
   175   139   144    1
   176   140   141    1
   177   140   142    2
   178   142   143    1
@<TRIPOS>SUBSTRUCTURE
     1 RES1        1 GROUP             0 ****  ****    0  
@<TRIPOS>CRYSIN
   34.9460   17.4553   23.7000   90.0000  108.9990   90.0000    14     1
