####################################################################### 
# 
# This file contains crystal structure data downloaded from the 
# Cambridge Structural Database (CSD) hosted by the Cambridge 
# Crystallographic Data Centre (CCDC).
# 
# Full information about CCDC data access policies and citation 
# guidelines are available at http://www.ccdc.cam.ac.uk/access/V1 
# 
# Audit and citation data items may have been added by the CCDC. 
# Please retain this information to preserve the provenance of 
# this file and to allow appropriate attribution of the data. 
# 
#######################################################################
@<TRIPOS>MOLECULE
KOJYUG
    85    94     1     0     0
SMALL
USER_CHARGES
****
Generated from the CSD

@<TRIPOS>ATOM
     1 In1      9.0638  31.7878   7.4620   In        1 RES1   0.0000
     2 O1      10.4988  30.1960   8.3976   O.co2     1 RES1   0.0000
     3 O2       8.3273  29.8523   8.3188   O.co2     1 RES1   0.0000
     4 O3      15.3312  17.6248   9.8806   O.co2     1 RES1  -1.0000
     5 O4      13.4949  16.6532   9.2048   O.co2     1 RES1   0.0000
     6 O5       8.5730  22.8331  14.2955   O.3       1 RES1   0.0000
     7 O6       5.0565  16.4959   8.4514   O.co2     1 RES1   0.0000
     8 O7       3.1599  16.4613   9.5548   O.co2     1 RES1   0.0000
     9 O8       9.7321  17.8365  21.9499   O.co2     1 RES1   0.0000
    10 O9       7.6275  17.2977  22.1486   O.co2     1 RES1   0.0000
    11 N1      11.8052  23.6141   9.7466   N.pl3     1 RES1   0.0000
    12 H1A     12.0235  22.8502   9.4161   H         1 RES1   0.0000
    13 H1B     11.3640  24.0637   9.1607   H         1 RES1   0.0000
    14 N2       6.5456  17.7775  15.4025   N.pl3     1 RES1   0.0000
    15 H2A      6.8823  17.5166  16.1499   H         1 RES1   0.0000
    16 H2B      5.6865  17.7815  15.4633   H         1 RES1   0.0000
    17 C1       9.4766  29.4601   8.6583   C.2       1 RES1   0.0000
    18 C2       9.6438  28.1639   9.3335   C.2       1 RES1   0.0000
    19 C3      10.8978  27.7470   9.7233   C.2       1 RES1   0.0000
    20 H3      11.6342  28.2932   9.5666   H         1 RES1   0.0000
    21 C4      11.0773  26.4920  10.3610   C.2       1 RES1   0.0000
    22 H4      11.9304  26.2013  10.5918   H         1 RES1   0.0000
    23 C5       9.9807  25.7091  10.6356   C.2       1 RES1   0.0000
    24 C6       8.7316  26.1860  10.2717   C.2       1 RES1   0.0000
    25 H6       7.9741  25.6859  10.4756   H         1 RES1   0.0000
    26 C7       8.5939  27.3716   9.6215   C.2       1 RES1   0.0000
    27 H7       7.7426  27.6461   9.3663   H         1 RES1   0.0000
    28 C8      10.1233  24.4249  11.3682   C.2       1 RES1   0.0000
    29 C9      10.9519  23.4247  10.9167   C.2       1 RES1   0.0000
    30 C10     10.9814  22.1558  11.5662   C.2       1 RES1   0.0000
    31 C11     10.2069  21.9752  12.6716   C.2       1 RES1   0.0000
    32 H11     10.2369  21.1645  13.1259   H         1 RES1   0.0000
    33 C12      9.3832  22.9748  13.1234   C.2       1 RES1   0.0000
    34 C13      9.3364  24.1837  12.4837   C.2       1 RES1   0.0000
    35 H13      8.7710  24.8504  12.8006   H         1 RES1   0.0000
    36 C14     11.8298  21.0130  11.0635   C.2       1 RES1   0.0000
    37 C15     13.1822  21.0075  11.1199   C.2       1 RES1   0.0000
    38 H15     13.6189  21.7615  11.4458   H         1 RES1   0.0000
    39 C16     13.9370  19.9325  10.7154   C.2       1 RES1   0.0000
    40 H16     14.8641  19.9518  10.7893   H         1 RES1   0.0000
    41 C17     13.2928  18.8153  10.1936   C.2       1 RES1   0.0000
    42 C18     11.9625  18.7816  10.1354   C.2       1 RES1   0.0000
    43 H18     11.5339  18.0353   9.7841   H         1 RES1   0.0000
    44 C19     11.2077  19.8705  10.6034   C.2       1 RES1   0.0000
    45 H19     10.2780  19.8204  10.6030   H         1 RES1   0.0000
    46 C20     14.0649  17.6368   9.7627   C.2       1 RES1   0.0000
    47 C21      8.1021  21.5778  14.5513   C.2       1 RES1   0.0000
    48 C22      8.2053  21.0341  15.8149   C.2       1 RES1   0.0000
    49 H22      8.6565  21.5251  16.4637   H         1 RES1   0.0000
    50 C23      7.6816  19.7976  16.1811   C.2       1 RES1   0.0000
    51 C24      6.9956  19.0461  15.1453   C.2       1 RES1   0.0000
    52 C25      6.8849  19.5927  13.8577   C.2       1 RES1   0.0000
    53 C26      7.4185  20.8448  13.5786   C.2       1 RES1   0.0000
    54 H26      7.3206  21.2017  12.7257   H         1 RES1   0.0000
    55 C27      6.9144  18.6704  11.5649   C.2       1 RES1   0.0000
    56 H27      7.7795  18.9997  11.4721   H         1 RES1   0.0000
    57 C28      6.2628  18.8487  12.7235   C.2       1 RES1   0.0000
    58 C29      4.9866  18.3274  12.8427   C.2       1 RES1   0.0000
    59 H29      4.5475  18.4024  13.6592   H         1 RES1   0.0000
    60 C30      4.3424  17.7042  11.8030   C.2       1 RES1   0.0000
    61 H30      3.4577  17.4373  11.9123   H         1 RES1   0.0000
    62 C31      4.9768  17.4630  10.5935   C.2       1 RES1   0.0000
    63 C32      6.3169  17.9976  10.4924   C.2       1 RES1   0.0000
    64 H32      6.7925  17.8923   9.6994   H         1 RES1   0.0000
    65 C33      4.3695  16.7628   9.4859   C.2       1 RES1   0.0000
    66 C34      7.9103  19.2837  17.5029   C.2       1 RES1   0.0000
    67 C35      9.1176  19.2724  18.0552   C.2       1 RES1   0.0000
    68 H35      9.8360  19.5851  17.5533   H         1 RES1   0.0000
    69 C36      9.3660  18.8120  19.3589   C.2       1 RES1   0.0000
    70 H36     10.2316  18.8262  19.6991   H         1 RES1   0.0000
    71 C37      8.3406  18.3449  20.1260   C.2       1 RES1   0.0000
    72 C38      7.0472  18.3235  19.5904   C.2       1 RES1   0.0000
    73 H38      6.3308  17.9984  20.0862   H         1 RES1   0.0000
    74 C39      6.8579  18.8137  18.2651   C.2       1 RES1   0.0000
    75 H39      6.0015  18.8166  17.9031   H         1 RES1   0.0000
    76 C40      8.5914  17.7924  21.4708   C.2       1 RES1   0.0000
    77 In1     15.5252  15.5778   8.9575   In        1 RES1   0.0000
    78 In1      9.0638  16.8422  23.8815   In        1 RES1   0.0000
    79 In1      3.2307  15.5778   7.4620   In        1 RES1   0.0000
    80 O3       9.2578  33.8348   6.5389   O.3       1 RES1   0.0000
    81 O4      11.0941  32.8632   7.2147   O.3       1 RES1   0.0000
    82 O6       7.2380  32.7059   8.4514   O.3       1 RES1   0.0000
    83 O7       9.1346  32.6713   9.5548   O.3       1 RES1   0.0000
    84 O8       9.7321  30.7935   5.5304   O.3       1 RES1   0.0000
    85 O9       7.6275  31.3323   5.7291   O.3       1 RES1   0.0000
@<TRIPOS>BOND
     1     1     2    1
     2     1     3    1
     3     1    80    1
     4     1    81    1
     5     1    82    1
     6     1    83    1
     7     1    84    1
     8     1    85    1
     9     2    17   un
    10     3    17   un
    11     4    46   un
    12     4    77    1
    13     5    46   un
    14     5    77    1
    15     6    33    1
    16     6    47    1
    17     7    65   un
    18     7    79    1
    19     8    65   un
    20     8    79    1
    21     9    76   un
    22     9    78    1
    23    10    76   un
    24    10    78    1
    25    11    12    1
    26    11    13    1
    27    11    29    1
    28    14    15    1
    29    14    16    1
    30    14    51    1
    31    17    18    1
    32    18    19    1
    33    18    26    2
    34    19    20    1
    35    19    21    2
    36    21    22    1
    37    21    23    1
    38    23    24    2
    39    23    28    1
    40    24    25    1
    41    24    26    1
    42    26    27    1
    43    28    29    2
    44    28    34    1
    45    29    30    1
    46    30    31    2
    47    30    36    1
    48    31    32    1
    49    31    33    1
    50    33    34    2
    51    34    35    1
    52    36    37    1
    53    36    44    2
    54    37    38    1
    55    37    39    2
    56    39    40    1
    57    39    41    1
    58    41    42    2
    59    41    46    1
    60    42    43    1
    61    42    44    1
    62    44    45    1
    63    47    48    1
    64    47    53    2
    65    48    49    1
    66    48    50    2
    67    50    51    1
    68    50    66    1
    69    51    52    2
    70    52    53    1
    71    52    57    1
    72    53    54    1
    73    55    56    1
    74    55    57    2
    75    55    63    1
    76    57    58    1
    77    58    59    1
    78    58    60    2
    79    60    61    1
    80    60    62    1
    81    62    63    2
    82    62    65    1
    83    63    64    1
    84    66    67    2
    85    66    74    1
    86    67    68    1
    87    67    69    1
    88    69    70    1
    89    69    71    2
    90    71    72    1
    91    71    76    1
    92    72    73    1
    93    72    74    2
    94    74    75    1
@<TRIPOS>SUBSTRUCTURE
     1 RES1        1 GROUP             0 ****  ****    0  
@<TRIPOS>CRYSIN
   24.5890   32.4200   32.8390   90.0000   90.0000   90.0000    61     1
