####################################################################### 
# 
# This file contains crystal structure data downloaded from the 
# Cambridge Structural Database (CSD) hosted by the Cambridge 
# Crystallographic Data Centre (CCDC).
# 
# Full information about CCDC data access policies and citation 
# guidelines are available at http://www.ccdc.cam.ac.uk/access/V1 
# 
# Audit and citation data items may have been added by the CCDC. 
# Please retain this information to preserve the provenance of 
# this file and to allow appropriate attribution of the data. 
# 
#######################################################################
@<TRIPOS>MOLECULE
KOJYOA
   104    98    14     0     0
SMALL
NO_CHARGES
****
Generated from the CSD

@<TRIPOS>ATOM
     1 In1     -3.4517   8.0352  10.8436   In        1 RES1   0.0000
     2 O6       0.3597   9.2888  24.5619   O.co2     1 RES1   0.0000
     3 O7       2.5335   9.5130  24.7878   O.co2     1 RES1   0.0000
     4 O5       3.2054   9.9515  18.1156   O.3       1 RES1   0.0000
     5 O4       1.0868  14.9156  16.9644   O.3       1 RES1   0.0000
     6 C37      1.5525  10.2394  22.7174   C.2       1 RES1   0.0000
     7 C40      1.5109   9.6369  24.1165   C.2       1 RES1   0.0000
     8 C34      1.7861  11.2971  20.1577   C.2       1 RES1   0.0000
     9 C25      1.9606  11.8695  18.7493   C.2       1 RES1   0.0000
    10 C38      0.4576  10.4268  21.9363   C.2       1 RES1   0.0000
    11 H38     -0.3789  10.1939  22.2706   H         1 RES1   0.0000
    12 C23      2.9082  11.7390  16.5315   C.2       1 RES1   0.0000
    13 C36      2.7959  10.5842  22.1967   C.2       1 RES1   0.0000
    14 H36      3.5619  10.4828  22.7151   H         1 RES1   0.0000
    15 C26      1.3994  13.1080  18.4481   C.2       1 RES1   0.0000
    16 H26      0.8836  13.5564  19.0796   H         1 RES1   0.0000
    17 C27      3.6986  11.0227  15.5026   C.2       1 RES1   0.0000
    18 C24      2.7064  11.1632  17.7925   C.2       1 RES1   0.0000
    19 C22      2.3525  12.9641  16.2554   C.2       1 RES1   0.0000
    20 H22      2.4737  13.3366  15.4110   H         1 RES1   0.0000
    21 C28      3.2706  10.9591  14.1694   C.2       1 RES1   0.0000
    22 H28      2.4664  11.3542  13.9194   H         1 RES1   0.0000
    23 C21      1.6151  13.6637  17.2028   C.2       1 RES1   0.0000
    24 C9       0.0187  16.0336  13.0997   C.2       1 RES1   0.0000
    25 C12      0.7341  15.2336  15.6406   C.2       1 RES1   0.0000
    26 C35      2.8929  11.0829  20.9074   C.2       1 RES1   0.0000
    27 H35      3.7311  11.2753  20.5528   H         1 RES1   0.0000
    28 C39      0.5458  10.9490  20.6628   C.2       1 RES1   0.0000
    29 H39     -0.2205  11.0684  20.1484   H         1 RES1   0.0000
    30 C10      0.8310  16.8737  13.8557   C.2       1 RES1   0.0000
    31 C32      4.9272  10.4335  15.8696   C.2       1 RES1   0.0000
    32 H32      5.2287  10.4567  16.7485   H         1 RES1   0.0000
    33 C11      1.1546  16.4486  15.1732   C.2       1 RES1   0.0000
    34 H11      1.6590  17.0033  15.7234   H         1 RES1   0.0000
    35 C8      -0.3944  14.8085  13.5577   C.2       1 RES1   0.0000
    36 C13     -0.0356  14.4302  14.8940   C.2       1 RES1   0.0000
    37 H13     -0.3396  13.6239  15.2422   H         1 RES1   0.0000
    38 C14      1.2655  18.1892  13.3350   C.2       1 RES1   0.0000
    39 C16      0.9024  20.2545  12.1900   C.2       1 RES1   0.0000
    40 H16      0.3279  20.8246  11.7336   H         1 RES1   0.0000
    41 O1      -0.2934  16.3716  11.8010   O.3       1 RES1   0.0000
    42 C17      2.1930  20.6395  12.4096   C.2       1 RES1   0.0000
    43 C18      3.0655  19.8328  13.0966   C.2       1 RES1   0.0000
    44 H18      3.9475  20.0975  13.2330   H         1 RES1   0.0000
    45 C19      2.6041  18.6043  13.5891   C.2       1 RES1   0.0000
    46 H19      3.1735  18.0595  14.0825   H         1 RES1   0.0000
    47 C42      2.6808  22.0152  11.9736   C.2       1 RES1   0.0000
    48 C30      5.2393   9.7406  13.5389   C.2       1 RES1   0.0000
    49 C31      5.6742   9.8176  14.8689   C.2       1 RES1   0.0000
    50 H31      6.4947   9.4403  15.0908   H         1 RES1   0.0000
    51 C15      0.4264  19.0261  12.6386   C.2       1 RES1   0.0000
    52 H15     -0.4510  18.7709  12.4638   H         1 RES1   0.0000
    53 C29      4.0702  10.2963  13.2032   C.2       1 RES1   0.0000
    54 H29      3.7748  10.2446  12.3239   H         1 RES1   0.0000
    55 O2       1.8079  22.7784  11.4905   O.co2     1 RES1   0.0000
    56 O3       3.8709  22.2997  12.0833   O.co2     1 RES1   0.0000
    57 O9       5.6534   8.7532  11.3995   O.co2     1 RES1   0.0000
    58 O8       7.3115   8.8402  12.8331   O.co2     1 RES1   0.0000
    59 C33      6.1329   9.0745  12.5256   C.2       1 RES1   0.0000
    60 O10     -3.2600  10.0386   9.9722   O.co2     1 RES1   0.0000
    61 C1      -3.5524  11.2335  10.3706   C.2       1 RES1   0.0000
    62 O11     -4.5661  11.5817   9.6366   O.co2     1 RES1   0.0000
    63 C41      2.3006   8.9239  17.9368   C.3       1 RES1   0.0000
    64 H41A     2.0388   8.8845  17.0143   H         1 RES1   0.0000
    65 H41B     1.5267   9.0800  18.4830   H         1 RES1   0.0000
    66 H41C     2.7081   8.0922  18.1898   H         1 RES1   0.0000
    67 C20      0.6352  15.9867  10.7690   C.3       1 RES1   0.0000
    68 H20A     0.5721  16.5990  10.0325   H         1 RES1   0.0000
    69 H20B     0.4364  15.0989  10.4669   H         1 RES1   0.0000
    70 H20C     1.5330  16.0082  11.1211   H         1 RES1   0.0000
    71 O12     -1.5816   8.0335  11.6442   O.3       1 RES1   0.0000
    72 H12A    -1.9112   7.2484  11.6326   H         1 RES1   0.0000
    73 H12B    -0.8423   7.9936  12.0627   H         1 RES1   0.0000
    74 C5'     -0.5693  12.5792  12.3813   C.2       1 RES1   0.0000
    75 H5'      0.2435  12.2982  12.7356   H         1 RES1   0.0000
    76 C7'     -1.3450  11.6955  11.6410   C.2       1 RES1   0.0000
    77 H7'     -1.0527  10.8242  11.4990   H         1 RES1   0.0000
    78 C2'     -2.5618  12.1139  11.1140   C.2       1 RES1   0.0000
    79 C3'     -3.0018  13.4160  11.3273   C.2       1 RES1   0.0000
    80 H3'     -3.8151  13.6945  10.9729   H         1 RES1   0.0000
    81 C4'     -2.2271  14.2963  12.0677   C.2       1 RES1   0.0000
    82 H4'     -2.5190  15.1686  12.2096   H         1 RES1   0.0000
    83 C6'     -1.0103  13.8813  12.5947   C.2       1 RES1   0.0000
    84 In1      7.8613   8.0352  10.8436   In        1 RES1   0.0000
    85 In1      2.2048  24.7717  10.8436   In        1 RES1   0.0000
    86 In1      1.3834   8.7013  26.5281   In        1 RES1   0.0000
    87 O6      -4.4754   7.4477   8.8774   O.3       1 RES1   0.0000
    88 O7      -2.3016   7.2235   9.1033   O.3       1 RES1   0.0000
    89 O2      -3.8486   6.0419  11.4905   O.3       1 RES1   0.0000
    90 O9      -5.6596   8.7532  11.3995   O.3       1 RES1   0.0000
    91 O8      -4.0015   8.8402  12.8331   O.3       1 RES1   0.0000
    92 C5?     -0.7349  12.7699  12.1743   C.3       2 RES2   0.0000
    93 H5?      0.1786  12.6306  12.2843   H         3 RES3   0.0000
    94 C7?     -1.4788  11.8997  11.3870   C.3       4 RES4   0.0000
    95 H7?     -1.0675  11.1797  10.9710   H         5 RES5   0.0000
    96 C2?     -2.8504  12.1105  11.2238   C.3       6 RES6   0.0000
    97 C3?     -3.4635  13.1884  11.8481   C.3       7 RES7   0.0000
    98 H3?     -4.3762  13.3271  11.7382   H         8 RES8   0.0000
    99 C4?     -2.7207  14.0553  12.6354   C.3       9 RES9   0.0000
   100 H4?     -3.1302  14.7779  13.0514   H        10 RES10   0.0000
   101 C6?     -1.3491  13.8478  12.7986   C.3      11 RES11   0.0000
   102 O11'?   -4.7835  11.4210  10.3330   O.3      12 RES12   0.0000
   103 O10'?   -2.8313   9.9716  10.2106   O.3      13 RES13   0.0000
   104 C1'?    -3.5299  11.0528  10.3737   C.3      14 RES14   0.0000
@<TRIPOS>BOND
     1     1    60    1
     2     1    71    1
     3     1    87    1
     4     1    88    1
     5     1    89    1
     6     1    90    1
     7     1    91    1
     8     2     7   un
     9     2    86    1
    10     3     7   un
    11     3    86    1
    12     4    18    1
    13     4    63    1
    14     5    23    1
    15     5    25    1
    16     6     7    1
    17     6    10    1
    18     6    13    2
    19     8     9    1
    20     8    26    2
    21     8    28    1
    22     9    15    1
    23     9    18    2
    24    10    11    1
    25    10    28    2
    26    12    17    1
    27    12    18    1
    28    12    19    2
    29    13    14    1
    30    13    26    1
    31    15    16    1
    32    15    23    2
    33    17    21    2
    34    17    31    1
    35    19    20    1
    36    19    23    1
    37    21    22    1
    38    21    53    1
    39    24    30    1
    40    24    35    2
    41    24    41    1
    42    25    33    1
    43    25    36    2
    44    26    27    1
    45    28    29    1
    46    30    33    2
    47    30    38    1
    48    31    32    1
    49    31    49    2
    50    33    34    1
    51    35    36    1
    52    35    83    1
    53    36    37    1
    54    38    45    1
    55    38    51    2
    56    39    40    1
    57    39    42    2
    58    39    51    1
    59    41    67    1
    60    42    43    1
    61    42    47    1
    62    43    44    1
    63    43    45    2
    64    45    46    1
    65    47    55    1
    66    47    56    2
    67    48    49    1
    68    48    53    2
    69    48    59    1
    70    49    50    1
    71    51    52    1
    72    53    54    1
    73    55    85    1
    74    57    59   un
    75    57    84    1
    76    58    59   un
    77    58    84    1
    78    60    61    1
    79    61    62    2
    80    61    78    1
    81    63    64    1
    82    63    65    1
    83    63    66    1
    84    67    68    1
    85    67    69    1
    86    67    70    1
    87    71    72    1
    88    71    73    1
    89    74    75    1
    90    74    76    1
    91    74    83    2
    92    76    77    1
    93    76    78    2
    94    78    79    1
    95    79    80    1
    96    79    81    2
    97    81    82    1
    98    81    83    1
@<TRIPOS>SUBSTRUCTURE
     1 RES1        1 GROUP             0 ****  ****    0  
     2 RES2       92 GROUP             0 ****  ****    0  
     3 RES3       93 GROUP             0 ****  ****    0  
     4 RES4       94 GROUP             0 ****  ****    0  
     5 RES5       95 GROUP             0 ****  ****    0  
     6 RES6       96 GROUP             0 ****  ****    0  
     7 RES7       97 GROUP             0 ****  ****    0  
     8 RES8       98 GROUP             0 ****  ****    0  
     9 RES9       99 GROUP             0 ****  ****    0  
    10 RES10     100 GROUP             0 ****  ****    0  
    11 RES11     101 GROUP             0 ****  ****    0  
    12 RES12     102 GROUP             0 ****  ****    0  
    13 RES13     103 GROUP             0 ****  ****    0  
    14 RES14     104 GROUP             0 ****  ****    0  
@<TRIPOS>CRYSIN
   11.3130   33.4730   31.4120   90.0000   92.9980   90.0000    15     1
