####################################################################### 
# 
# This file contains crystal structure data downloaded from the 
# Cambridge Structural Database (CSD) hosted by the Cambridge 
# Crystallographic Data Centre (CCDC).
# 
# Full information about CCDC data access policies and citation 
# guidelines are available at http://www.ccdc.cam.ac.uk/access/V1 
# 
# Audit and citation data items may have been added by the CCDC. 
# Please retain this information to preserve the provenance of 
# this file and to allow appropriate attribution of the data. 
# 
#######################################################################
@<TRIPOS>MOLECULE
VORFOA
   153   169     1     0     0
SMALL
NO_CHARGES
****
Generated from the CSD

@<TRIPOS>ATOM
     1 Cl1     12.7087   7.0486  12.2395   Cl        1 RES1   0.0000
     2 In1     18.3630  19.0437  22.7895   In        1 RES1   0.0000
     3 In2     11.0119   8.7454  12.2395   In        1 RES1   0.0000
     4 N1      18.0621  10.7223  22.8291   N.pl3     1 RES1   0.0000
     5 H1      18.2078  10.2520  23.5346   H         1 RES1   0.0000
     6 N2      15.0076  11.3940  19.2816   N.pl3     1 RES1   0.0000
     7 H2      14.9915  12.2140  19.5381   H         1 RES1   0.0000
     8 N3      16.4539   6.9921  20.0630   N.pl3     1 RES1   0.0000
     9 H3      15.8970   6.7907  19.4394   H         1 RES1   0.0000
    10 N4      17.3370   8.8276  21.5366   N.2       1 RES1   0.0000
    11 N5      16.5191  11.0028  21.0226   N.2       1 RES1   0.0000
    12 N6      15.7999   9.1417  19.7448   N.2       1 RES1   0.0000
    13 N1'     18.5738  10.6531  22.3787   N.pl3     1 RES1   0.0000
    14 H1'     19.0400  10.0746  22.8093   H         1 RES1   0.0000
    15 N2'     15.4344  11.4592  18.7509   N.pl3     1 RES1   0.0000
    16 H2'     15.6713  12.2818  18.6630   H         1 RES1   0.0000
    17 N3'     17.0841   7.0356  19.6958   N.pl3     1 RES1   0.0000
    18 H3'     16.9748   6.8095  18.8728   H         1 RES1   0.0000
    19 N4'     17.8250   8.9184  21.0470   N.2       1 RES1   0.0000
    20 N5'     16.9834  11.0997  20.5477   N.2       1 RES1   0.0000
    21 N6'     16.2879   9.2484  19.2552   N.2       1 RES1   0.0000
    22 O1      19.2039  16.3946  25.2197   O.co2     1 RES1   0.0000
    23 O2      18.3245  16.9063  23.2355   O.co2     1 RES1   0.0000
    24 O3      11.6760   9.3901  14.2468   O.co2     1 RES1   0.0000
    25 O4      10.2750  10.9374  15.0947   O.co2     1 RES1   0.0000
    26 O5      19.5038   2.5463  23.4759   O.co2     1 RES1   0.0000
    27 O6      18.2696   1.3170  22.1187   O.co2     1 RES1   0.0000
    28 O7      19.4651  19.4651  24.4790   O.3       1 RES1   0.0000
    29 O8      17.2876  18.5298  20.9731   O.3       1 RES1   0.0000
    30 H8A     17.1427  19.2365  20.5230   H         1 RES1   0.0000
    31 H8B     17.7625  17.9946  20.5142   H         1 RES1   0.0000
    32 C1      18.8030  16.1101  24.0839   C.2       1 RES1   0.0000
    33 C2      18.7872  14.6382  23.6732   C.2       1 RES1   0.0000
    34 C3      18.5600  14.3754  22.2764   C.2       1 RES1   0.0000
    35 H3A     18.4438  15.0748  21.6749   H         1 RES1   0.0000
    36 C4      18.5185  13.1169  21.8651   C.2       1 RES1   0.0000
    37 H4      18.4309  12.9444  20.9554   H         1 RES1   0.0000
    38 C5      18.6035  12.0520  22.7434   C.3       1 RES1   0.0000
    39 C6      18.9433  12.3483  24.1128   C.2       1 RES1   0.0000
    40 H6      19.0881  11.6572  24.7189   H         1 RES1   0.0000
    41 C7      19.0500  13.6207  24.5054   C.2       1 RES1   0.0000
    42 H7      19.3111  13.8049  25.3787   H         1 RES1   0.0000
    43 C8      11.3743  10.2600  15.0414   C.2       1 RES1   0.0000
    44 C9      12.3720  10.5346  16.1072   C.2       1 RES1   0.0000
    45 C10     12.1982  11.6133  17.0413   C.2       1 RES1   0.0000
    46 H10     11.4514  12.1628  16.9677   H         1 RES1   0.0000
    47 C11     13.1129  11.8544  18.0435   C.2       1 RES1   0.0000
    48 H11     12.9944  12.5490  18.6509   H         1 RES1   0.0000
    49 C12     14.2391  11.0068  18.1105   C.3       1 RES1   0.0000
    50 C13     14.3873   9.9320  17.2347   C.2       1 RES1   0.0000
    51 H13     15.1147   9.3615  17.3316   H         1 RES1   0.0000
    52 C14     13.5100   9.7068  16.2663   C.2       1 RES1   0.0000
    53 H14     13.6435   8.9954  15.6829   H         1 RES1   0.0000
    54 C15     18.7299   2.3788  22.5026   C.2       1 RES1   0.0000
    55 C16     18.2301   3.6274  21.8480   C.2       1 RES1   0.0000
    56 C17     17.4042   3.5998  20.8302   C.2       1 RES1   0.0000
    57 H17     17.2384   2.7654  20.4540   H         1 RES1   0.0000
    58 C18     16.7246   4.7220  20.2304   C.2       1 RES1   0.0000
    59 H18     16.0194   4.6424  19.6304   H         1 RES1   0.0000
    60 C19     17.2699   5.9766  20.6710   C.3       1 RES1   0.0000
    61 C20     18.2577   6.0121  21.6355   C.2       1 RES1   0.0000
    62 H20     18.6347   6.8279  21.8729   H         1 RES1   0.0000
    63 C21     18.6706   4.9255  22.2171   C.2       1 RES1   0.0000
    64 H21     19.2871   5.0039  22.9101   H         1 RES1   0.0000
    65 C22     17.2975  10.1730  21.7814   C.2       1 RES1   0.0000
    66 C23     15.7782  10.4654  20.0091   C.2       1 RES1   0.0000
    67 C24     16.5803   8.3198  20.5085   C.2       1 RES1   0.0000
    68 C22'    17.7658  10.2639  21.2967   C.2       1 RES1   0.0000
    69 C23'    16.2445  10.5800  19.5245   C.2       1 RES1   0.0000
    70 C24'    17.0703   8.4186  20.0091   C.2       1 RES1   0.0000
    71 In3     19.0437  18.3630  26.1685   In        1 RES1   0.0000
    72 N13     10.7223  18.0621  26.1289   N.pl3     1 RES1   0.0000
    73 H22     10.2520  18.2078  25.4234   H         1 RES1   0.0000
    74 N14     11.3940  15.0076  29.6764   N.pl3     1 RES1   0.0000
    75 H23     12.2140  14.9915  29.4199   H         1 RES1   0.0000
    76 N15      6.9921  16.4539  28.8950   N.pl3     1 RES1   0.0000
    77 H24      6.7907  15.8970  29.5186   H         1 RES1   0.0000
    78 N16      8.8276  17.3370  27.4214   N.2       1 RES1   0.0000
    79 N17     11.0028  16.5191  27.9354   N.2       1 RES1   0.0000
    80 N18      9.1417  15.7999  29.2132   N.2       1 RES1   0.0000
    81 O9      16.3946  19.2039  23.7383   O.co2     1 RES1   0.0000
    82 O10     16.9063  18.3245  25.7225   O.co2     1 RES1   0.0000
    83 O11      9.3901  11.6760  34.7112   O.co2     1 RES1   0.0000
    84 O12     10.9374  10.2750  33.8633   O.co2     1 RES1   0.0000
    85 O13      2.5463  19.5038  25.4821   O.co2     1 RES1   0.0000
    86 O14      1.3170  18.2696  26.8393   O.co2     1 RES1   0.0000
    87 O15     18.5298  17.2876  27.9849   O.3       1 RES1   0.0000
    88 H28     19.2365  17.1427  28.4350   H         1 RES1   0.0000
    89 H29     17.9946  17.7625  28.4438   H         1 RES1   0.0000
    90 C28     16.1101  18.8030  24.8741   C.2       1 RES1   0.0000
    91 C29     14.6382  18.7872  25.2848   C.2       1 RES1   0.0000
    92 C30     14.3754  18.5600  26.6816   C.2       1 RES1   0.0000
    93 H30     15.0748  18.4438  27.2831   H         1 RES1   0.0000
    94 C31     13.1169  18.5185  27.0929   C.2       1 RES1   0.0000
    95 H31     12.9444  18.4309  28.0026   H         1 RES1   0.0000
    96 C32     12.0520  18.6035  26.2146   C.3       1 RES1   0.0000
    97 C33     12.3483  18.9433  24.8452   C.2       1 RES1   0.0000
    98 H32     11.6572  19.0881  24.2391   H         1 RES1   0.0000
    99 C34     13.6207  19.0500  24.4526   C.2       1 RES1   0.0000
   100 H33     13.8049  19.3111  23.5793   H         1 RES1   0.0000
   101 C35     10.2600  11.3743  33.9166   C.2       1 RES1   0.0000
   102 C36     10.5346  12.3720  32.8508   C.2       1 RES1   0.0000
   103 C37     11.6133  12.1982  31.9167   C.2       1 RES1   0.0000
   104 H34     12.1628  11.4514  31.9903   H         1 RES1   0.0000
   105 C38     11.8544  13.1129  30.9145   C.2       1 RES1   0.0000
   106 H35     12.5490  12.9944  30.3071   H         1 RES1   0.0000
   107 C39     11.0068  14.2391  30.8475   C.3       1 RES1   0.0000
   108 C40      9.9320  14.3873  31.7233   C.2       1 RES1   0.0000
   109 H36      9.3615  15.1147  31.6264   H         1 RES1   0.0000
   110 C41      9.7068  13.5100  32.6917   C.2       1 RES1   0.0000
   111 H37      8.9954  13.6435  33.2751   H         1 RES1   0.0000
   112 C42      2.3788  18.7299  26.4554   C.2       1 RES1   0.0000
   113 C43      3.6274  18.2301  27.1100   C.2       1 RES1   0.0000
   114 C44      3.5998  17.4042  28.1278   C.2       1 RES1   0.0000
   115 H38      2.7654  17.2384  28.5040   H         1 RES1   0.0000
   116 C45      4.7220  16.7246  28.7276   C.2       1 RES1   0.0000
   117 H39      4.6424  16.0194  29.3276   H         1 RES1   0.0000
   118 C46      5.9766  17.2699  28.2870   C.3       1 RES1   0.0000
   119 C47      6.0121  18.2577  27.3225   C.2       1 RES1   0.0000
   120 H40      6.8279  18.6347  27.0851   H         1 RES1   0.0000
   121 C48      4.9255  18.6706  26.7409   C.2       1 RES1   0.0000
   122 H41      5.0039  19.2871  26.0479   H         1 RES1   0.0000
   123 C49     10.1730  17.2975  27.1766   C.2       1 RES1   0.0000
   124 C50     10.4654  15.7782  28.9489   C.2       1 RES1   0.0000
   125 C51      8.3198  16.5803  28.4495   C.2       1 RES1   0.0000
   126 In4     18.3630  -0.7136  22.7895   In        1 RES1   0.0000
   127 In5     10.5923   8.4844  35.0290   In        1 RES1   0.0000
   128 In6      8.4844  10.5923  13.9290   In        1 RES1   0.0000
   129 In7     -0.7136  18.3630  26.1685   In        1 RES1   0.0000
   130 In8      8.7454  11.0119  36.7185   In        1 RES1   0.0000
   131 In9      1.1333  20.8906  24.4790   In        1 RES1   0.0000
   132 In10    20.8906   1.1333  24.4790   In        1 RES1   0.0000
   133 In11    20.8906  20.8906  24.4790   In        1 RES1   0.0000
   134 O16     10.3672   8.0813  10.2322   O.3       1 RES1   0.0000
   135 O17     18.6985  20.1536  27.3342   O.3       1 RES1   0.0000
   136 O18     20.1536  18.6985  21.6238   O.3       1 RES1   0.0000
   137 O19     12.4250  10.1321  11.2364   O.3       1 RES1   0.0000
   138 O20      9.6252   7.3323  13.2426   O.3       1 RES1   0.0000
   139 O21     18.2696  21.0743  22.1187   O.3       1 RES1   0.0000
   140 O22     21.0743  18.2696  26.8393   O.3       1 RES1   0.0000
   141 O23      9.5864  10.1709  12.2395   O.3       1 RES1   0.0000
   142 N19     10.6531  18.5738  26.5793   N.pl3     1 RES1   0.0000
   143 H25     10.0746  19.0400  26.1487   H         1 RES1   0.0000
   144 N20     11.4592  15.4344  30.2071   N.pl3     1 RES1   0.0000
   145 H26     12.2818  15.6713  30.2950   H         1 RES1   0.0000
   146 N21      7.0356  17.0841  29.2622   N.pl3     1 RES1   0.0000
   147 H27      6.8095  16.9748  30.0852   H         1 RES1   0.0000
   148 N22      8.9184  17.8250  27.9110   N.2       1 RES1   0.0000
   149 N23     11.0997  16.9834  28.4103   N.2       1 RES1   0.0000
   150 N24      9.2484  16.2879  29.7028   N.2       1 RES1   0.0000
   151 C52     10.2639  17.7658  27.6613   C.2       1 RES1   0.0000
   152 C53     10.5800  16.2445  29.4335   C.2       1 RES1   0.0000
   153 C54      8.4186  17.0703  28.9489   C.2       1 RES1   0.0000
@<TRIPOS>BOND
     1     1     3    1
     2     2    23    1
     3     2    28    1
     4     2    29    1
     5     2    81    1
     6     2   136    1
     7     2   139    1
     8     3    24    1
     9     3   134    1
    10     3   137    1
    11     3   138    1
    12     3   141    1
    13     4     5    1
    14     4    38    1
    15     4    65    1
    16     6     7    1
    17     6    49    1
    18     6    66    1
    19     8     9    1
    20     8    60    1
    21     8    67    1
    22    10    65    1
    23    10    67    2
    24    11    65    2
    25    11    66    1
    26    12    66    2
    27    12    67    1
    28    22    32   un
    29    22    71    1
    30    23    32   un
    31    24    43   un
    32    25    43   un
    33    25   128    1
    34    26    54   un
    35    26   132    1
    36    27    54   un
    37    27   126    1
    38    28    71    1
    39    28   133    1
    40    29    30    1
    41    29    31    1
    42    32    33    1
    43    33    34    1
    44    33    41    2
    45    34    35    1
    46    34    36    2
    47    36    37    1
    48    36    38    1
    49    38    39    1
    50    39    40    1
    51    39    41    1
    52    41    42    1
    53    43    44    1
    54    44    45    1
    55    44    52    2
    56    45    46    1
    57    45    47    2
    58    47    48    1
    59    47    49    1
    60    49    50    1
    61    50    51    1
    62    50    52    1
    63    52    53    1
    64    54    55    1
    65    55    56    1
    66    55    63    2
    67    56    57    1
    68    56    58    2
    69    58    59    1
    70    58    60    1
    71    60    61    1
    72    61    62    1
    73    61    63    1
    74    63    64    1
    75    71    82    1
    76    71    87    1
    77    71   135    1
    78    71   140    1
    79    72    73    1
    80    72    96    1
    81    72   123    1
    82    74    75    1
    83    74   107    1
    84    74   124    1
    85    76    77    1
    86    76   118    1
    87    76   125    1
    88    78   123    1
    89    78   125    2
    90    79   123    2
    91    79   124    1
    92    80   124    2
    93    80   125    1
    94    81    90   un
    95    82    90   un
    96    83   101   un
    97    83   130    1
    98    84   101   un
    99    84   127    1
   100    85   112   un
   101    85   131    1
   102    86   112   un
   103    86   129    1
   104    87    88    1
   105    87    89    1
   106    90    91    1
   107    91    92    1
   108    91    99    2
   109    92    93    1
   110    92    94    2
   111    94    95    1
   112    94    96    1
   113    96    97    1
   114    97    98    1
   115    97    99    1
   116    99   100    1
   117   101   102    1
   118   102   103    1
   119   102   110    2
   120   103   104    1
   121   103   105    2
   122   105   106    1
   123   105   107    1
   124   107   108    1
   125   108   109    1
   126   108   110    1
   127   110   111    1
   128   112   113    1
   129   113   114    1
   130   113   121    2
   131   114   115    1
   132   114   116    2
   133   116   117    1
   134   116   118    1
   135   118   119    1
   136   119   120    1
   137   119   121    1
   138   121   122    1
   139   128   141    1
   140    13    14    1
   141    13    38    1
   142    13    68    1
   143    15    16    1
   144    15    49    1
   145    15    69    1
   146    17    18    1
   147    17    60    1
   148    17    70    1
   149    19    68    2
   150    19    70    1
   151    20    68    1
   152    20    69    2
   153    21    69    1
   154    21    70    2
   155   142   143    1
   156   142    96    1
   157   142   151    1
   158   144   145    1
   159   144   107    1
   160   144   152    1
   161   146   147    1
   162   146   118    1
   163   146   153    1
   164   148   151    2
   165   148   153    1
   166   149   151    1
   167   149   152    2
   168   150   152    1
   169   150   153    2
@<TRIPOS>SUBSTRUCTURE
     1 RES1        1 GROUP             0 ****  ****    0  
@<TRIPOS>CRYSIN
   19.7573   19.7573   48.9580   90.0000   90.0000   90.0000    92     1
