####################################################################### 
# 
# This file contains crystal structure data downloaded from the 
# Cambridge Structural Database (CSD) hosted by the Cambridge 
# Crystallographic Data Centre (CCDC).
# 
# Full information about CCDC data access policies and citation 
# guidelines are available at http://www.ccdc.cam.ac.uk/access/V1 
# 
# Audit and citation data items may have been added by the CCDC. 
# Please retain this information to preserve the provenance of 
# this file and to allow appropriate attribution of the data. 
# 
#######################################################################
@<TRIPOS>MOLECULE
CUPSEO
   129   144     6     0     0
SMALL
NO_CHARGES
****
Generated from the CSD

@<TRIPOS>ATOM
     1 Ca1      8.8966   5.1364  19.0198   Ca        1 RES1   0.0000
     2 Cu1     11.6206   6.4790  17.3787   Cu        1 RES1   0.0000
     3 Cu2     11.6441   6.4419  20.6799   Cu        1 RES1   0.0000
     4 N1      11.6198   7.7494  15.9119   N.2       1 RES1   0.0000
     5 N2      15.0637   7.7817  15.7550   N.2       1 RES1   0.0000
     6 O1HH    11.4517   5.5166  19.0019   O.3       1 RES1   0.0000
     7 O1       9.6768   6.7539  17.2834   O.co2     1 RES1   0.0000
     8 O2      13.6661   6.6091  17.2209   O.3       1 RES1   0.0000
     9 O3      17.0459   8.6508  14.3707   O.co2     1 RES1   0.0000
    10 O4      13.0833   8.8419  14.5340   O.3       1 RES1   0.0000
    11 O5       8.0639   7.7725  16.1045   O.co2     1 RES1   0.0000
    12 O6      18.6126   7.5829  15.5457   O.co2     1 RES1   0.0000
    13 C1      10.3307   8.1361  15.3620   C.3       1 RES1   0.0000
    14 H1B     10.2446   9.1309  15.3082   H         1 RES1   0.0000
    15 C2       9.2792   7.5167  16.4095   C.2       1 RES1   0.0000
    16 C3      17.3946   7.8649  15.3697   C.2       1 RES1   0.0000
    17 C4      16.3724   7.1915  16.1097   C.3       1 RES1   0.0000
    18 H4A     16.5279   7.4381  17.0666   H         1 RES1   0.0000
    19 C5      13.8814   7.4443  16.2066   C.2       1 RES1   0.0000
    20 C6      12.7595   8.0838  15.4360   C.2       1 RES1   0.0000
    21 C1H     16.5779   5.6676  16.0369   C.3       1 RES1   0.0000
    22 H1HA    17.5224   5.4455  16.2287   H         1 RES1   0.0000
    23 H1HB    16.0093   5.2200  16.7143   H         1 RES1   0.0000
    24 O1H     16.2247   5.2161  14.7356   O.3       1 RES1   0.0000
    25 C1S     10.1030   7.4550  13.9229   C.3       1 RES1   0.0000
    26 H1SA    10.6675   7.9703  13.2934   H         1 RES1   0.0000
    27 H1SB     9.1655   7.6574  13.6789   H         1 RES1   0.0000
    28 C2S     10.3236   5.9110  13.5363   C.3       1 RES1   0.0000
    29 H2SA     9.8899   5.7132  12.6647   H         1 RES1   0.0000
    30 H2SB     9.9254   5.3242  14.2226   H         1 RES1   0.0000
    31 C3S     13.5949   4.6922  14.1742   C.3       1 RES1   0.0000
    32 H3SA    14.4140   4.8988  13.6815   H         1 RES1   0.0000
    33 H3SB    13.7005   4.9717  15.1121   H         1 RES1   0.0000
    34 H3SC    13.4278   3.7265  14.1445   H         1 RES1   0.0000
    35 S1      12.1528   5.6028  13.4088   S.3       1 RES1   0.0000
    36 Cu1      6.3719   6.8242  17.3787   Cu        1 RES1   0.0000
    37 Cu2      6.3923   6.8632  20.6799   Cu        1 RES1   0.0000
    38 N1       5.2721   6.1884  15.9119   N.2       1 RES1   0.0000
    39 N2       3.5222   9.1547  15.7550   N.2       1 RES1   0.0000
    40 O1HH     7.2899   7.1592  19.0019   O.3       1 RES1   0.0000
    41 O1       7.1057   5.0034  17.2834   O.co2     1 RES1   0.0000
    42 O2       5.2365   8.5306  17.2209   O.3       1 RES1   0.0000
    43 O3       1.7784  10.4368  14.3707   O.co2     1 RES1   0.0000
    44 O4       3.5942   6.9096  14.5340   O.3       1 RES1   0.0000
    45 O5       7.0301   3.0973  16.1045   O.co2     1 RES1   0.0000
    46 O6       1.9199  12.3275  15.5457   O.co2     1 RES1   0.0000
    47 C1       5.5817   4.8786  15.3620   C.3       1 RES1   0.0000
    48 H1B      4.7634   4.3066  15.3082   H         1 RES1   0.0000
    49 C2       6.6440   4.2776  16.4095   C.2       1 RES1   0.0000
    50 C3       2.2846  11.1317  15.3697   C.2       1 RES1   0.0000
    51 C4       3.3789  10.5832  16.1097   C.3       1 RES1   0.0000
    52 H4A      3.0876  10.5946  17.0666   H         1 RES1   0.0000
    53 C5       4.4056   8.2995  16.2066   C.2       1 RES1   0.0000
    54 C6       4.4127   7.0082  15.4360   C.2       1 RES1   0.0000
    55 C1H      4.5960  11.5231  16.0369   C.3       1 RES1   0.0000
    56 H1HA     4.3161  12.4521  16.2287   H         1 RES1   0.0000
    57 H1HB     5.2679  11.2545  16.7143   H         1 RES1   0.0000
    58 O1H      5.1636  11.4430  14.7356   O.3       1 RES1   0.0000
    59 C1S      6.2854   5.0219  13.9229   C.3       1 RES1   0.0000
    60 H1SA     5.5569   5.2532  13.2934   H         1 RES1   0.0000
    61 H1SB     6.5790   4.1089  13.6789   H         1 RES1   0.0000
    62 C2S      7.5123   5.9850  13.5363   C.3       1 RES1   0.0000
    63 H2SA     7.9005   5.7083  12.6647   H         1 RES1   0.0000
    64 H2SB     8.2196   5.9335  14.2226   H         1 RES1   0.0000
    65 C3S      6.9322   9.4274  14.1742   C.3       1 RES1   0.0000
    66 H3SA     6.3437  10.0335  13.6815   H         1 RES1   0.0000
    67 H3SB     6.6373   9.3791  15.1121   H         1 RES1   0.0000
    68 H3SC     7.8520   9.7656  14.1445   H         1 RES1   0.0000
    69 S1       6.8646   7.7232  13.4088   S.3       1 RES1   0.0000
    70 Cu1      8.6973   2.1062  17.3787   Cu        1 RES1   0.0000
    71 Cu2      8.6534   2.1043  20.6799   Cu        1 RES1   0.0000
    72 N1       9.7978   1.4716  15.9119   N.2       1 RES1   0.0000
    73 N2       8.1039  -1.5271  15.7550   N.2       1 RES1   0.0000
    74 O1HH     7.9482   2.7336  19.0019   O.3       1 RES1   0.0000
    75 O1       9.9073   3.6520  17.2834   O.co2     1 RES1   0.0000
    76 O2       7.7872   0.2697  17.2209   O.3       1 RES1   0.0000
    77 O3       7.8655  -3.6782  14.3707   O.co2     1 RES1   0.0000
    78 O4      10.0122  -0.3421  14.5340   O.3       1 RES1   0.0000
    79 O5      11.5958   4.5396  16.1045   O.co2     1 RES1   0.0000
    80 O6       6.1573  -4.5011  15.5457   O.co2     1 RES1   0.0000
    81 C1      10.7773   2.3946  15.3620   C.3       1 RES1   0.0000
    82 H1B     11.6819   1.9719  15.3082   H         1 RES1   0.0000
    83 C2      10.7667   3.6150  16.4095   C.2       1 RES1   0.0000
    84 C3       7.0105  -3.5873  15.3697   C.2       1 RES1   0.0000
    85 C4       6.9385  -2.3653  16.1097   C.3       1 RES1   0.0000
    86 H4A      7.0742  -2.6233  17.0666   H         1 RES1   0.0000
    87 C5       8.4028  -0.3344  16.2066   C.2       1 RES1   0.0000
    88 C6       9.5176   0.3174  15.4360   C.2       1 RES1   0.0000
    89 C1H      5.5159  -1.7813  16.0369   C.3       1 RES1   0.0000
    90 H1HA     4.8514  -2.4882  16.2287   H         1 RES1   0.0000
    91 H1HB     5.4126  -1.0651  16.7143   H         1 RES1   0.0000
    92 O1H      5.3015  -1.2497  14.7356   O.3       1 RES1   0.0000
    93 C1S     10.3014   2.9324  13.9229   C.3       1 RES1   0.0000
    94 H1SA    10.4653   2.1858  13.2934   H         1 RES1   0.0000
    95 H1SB    10.9453   3.6431  13.6789   H         1 RES1   0.0000
    96 C2S      8.8539   3.5133  13.5363   C.3       1 RES1   0.0000
    97 H2SA     8.8994   3.9879  12.6647   H         1 RES1   0.0000
    98 H2SB     8.5448   4.1516  14.2226   H         1 RES1   0.0000
    99 C3S      6.1627   1.2898  14.1742   C.3       1 RES1   0.0000
   100 H3SA     5.9321   0.4771  13.6815   H         1 RES1   0.0000
   101 H3SB     6.3520   1.0585  15.1121   H         1 RES1   0.0000
   102 H3SC     5.4099   1.9172  14.1445   H         1 RES1   0.0000
   103 S1       7.6724   2.0833  13.4088   S.3       1 RES1   0.0000
   104 Ca1      8.8966  -5.1364  12.6407   Ca        1 RES1   0.0000
   105 Ca1      0.0000  10.2729  12.6407   Ca        1 RES1   0.0000
   106 Ca1     17.7932  10.2729  12.6407   Ca        1 RES1   0.0000
   107 Cu2      6.1491  -6.4419  14.3008   Cu        1 RES1   0.0000
   108 Cu2     15.0457   8.9675  14.3008   Cu        1 RES1   0.0000
   109 Cu2      2.5043   8.5462  14.3008   Cu        1 RES1   0.0000
   110 Cu2     20.2975   8.5462  14.3008   Cu        1 RES1   0.0000
   111 Cu2      9.1398  -2.1043  14.3008   Cu        1 RES1   0.0000
   112 Cu2      0.2432  13.3051  14.3008   Cu        1 RES1   0.0000
   113 N2      11.6261   7.6276  22.1340   N.3       1 RES1   0.0000
   114 N2       5.3744   6.2547  22.1340   N.3       1 RES1   0.0000
   115 N2       9.6893   1.5271  22.1340   N.3       1 RES1   0.0000
   116 O3       9.6439   6.7585  20.7498   O.3       1 RES1   0.0000
   117 O3       7.1182   4.9726  20.7498   O.3       1 RES1   0.0000
   118 O3       9.9277   3.6782  20.7498   O.3       1 RES1   0.0000
   119 O4      13.6065   6.5675  20.9131   O.3       1 RES1   0.0000
   120 O4       5.3024   8.4998  20.9131   O.3       1 RES1   0.0000
   121 O4       7.7810   0.3421  20.9131   O.3       1 RES1   0.0000
   122 O6       8.0772   7.8264  21.9248   O.3       1 RES1   0.0000
   123 O6       6.9767   3.0819  21.9248   O.3       1 RES1   0.0000
   124 O6      11.6359   4.5011  21.9248   O.3       1 RES1   0.0000
   125 O1W      8.9277   9.6416  18.9547   O.3       2 RES2   0.0000
   126 O2W     11.7266   8.7756  19.0836   O.3       3 RES3   0.0000
   127 O3W     14.1990   4.2222  10.7168   O.3       4 RES4   0.0000
   128 O4W     13.7452   2.3885  12.7453   O.3       5 RES5   0.0000
   129 O5W     15.0495   5.0389  18.9841   O.3       6 RES6   0.0000
@<TRIPOS>BOND
     1     1     6    1
     2     1     7    1
     3     1    40    1
     4     1    41    1
     5     1    74    1
     6     1    75    1
     7     1   116    1
     8     1   117    1
     9     1   118    1
    10     2     4    1
    11     2     6    1
    12     2     7    1
    13     2     8    1
    14     2    79    1
    15     3     6    1
    16     3   113    1
    17     3   116    1
    18     3   119    1
    19     3   124    1
    20     4    13    1
    21     4    20    2
    22     5    17    1
    23     5    19    2
    24     5   108    1
    25     7    15   un
    26     8    19    1
    27     9    16   un
    28     9   106    1
    29     9   108    1
    30    10    20    1
    31    10   108    1
    32    11    15   un
    33    11    36    1
    34    12    16   un
    35    12   110    1
    36    13    14    1
    37    13    15    1
    38    13    25    1
    39    16    17    1
    40    17    18    1
    41    17    21    1
    42    19    20    1
    43    21    22    1
    44    21    23    1
    45    21    24    1
    46    25    26    1
    47    25    27    1
    48    25    28    1
    49    28    29    1
    50    28    30    1
    51    28    35    1
    52    31    32    1
    53    31    33    1
    54    31    34    1
    55    31    35    1
    56    36    38    1
    57    36    40    1
    58    36    41    1
    59    36    42    1
    60    37    40    1
    61    37   114    1
    62    37   117    1
    63    37   120    1
    64    37   122    1
    65    38    47    1
    66    38    54    2
    67    39    51    1
    68    39    53    2
    69    39   109    1
    70    41    49   un
    71    42    53    1
    72    43    50   un
    73    43   105    1
    74    43   109    1
    75    44    54    1
    76    44   109    1
    77    45    49   un
    78    45    70    1
    79    46    50   un
    80    46   112    1
    81    47    48    1
    82    47    49    1
    83    47    59    1
    84    50    51    1
    85    51    52    1
    86    51    55    1
    87    53    54    1
    88    55    56    1
    89    55    57    1
    90    55    58    1
    91    59    60    1
    92    59    61    1
    93    59    62    1
    94    62    63    1
    95    62    64    1
    96    62    69    1
    97    65    66    1
    98    65    67    1
    99    65    68    1
   100    65    69    1
   101    70    72    1
   102    70    74    1
   103    70    75    1
   104    70    76    1
   105    71    74    1
   106    71   115    1
   107    71   118    1
   108    71   121    1
   109    71   123    1
   110    72    81    1
   111    72    88    2
   112    73    85    1
   113    73    87    2
   114    73   111    1
   115    75    83   un
   116    76    87    1
   117    77    84   un
   118    77   104    1
   119    77   111    1
   120    78    88    1
   121    78   111    1
   122    79    83   un
   123    80    84   un
   124    80   107    1
   125    81    82    1
   126    81    83    1
   127    81    93    1
   128    84    85    1
   129    85    86    1
   130    85    89    1
   131    87    88    1
   132    89    90    1
   133    89    91    1
   134    89    92    1
   135    93    94    1
   136    93    95    1
   137    93    96    1
   138    96    97    1
   139    96    98    1
   140    96   103    1
   141    99   100    1
   142    99   101    1
   143    99   102    1
   144    99   103    1
@<TRIPOS>SUBSTRUCTURE
     1 RES1        1 GROUP             0 ****  ****    0  
     2 RES2      125 GROUP             0 ****  ****    0  
     3 RES3      126 GROUP             0 ****  ****    0  
     4 RES4      127 GROUP             0 ****  ****    0  
     5 RES5      128 GROUP             0 ****  ****    0  
     6 RES6      129 GROUP             0 ****  ****    0  
@<TRIPOS>CRYSIN
   17.7932   17.7932   12.7581   90.0000   90.0000  120.0000   173     1
