####################################################################### 
# 
# This file contains crystal structure data downloaded from the 
# Cambridge Structural Database (CSD) hosted by the Cambridge 
# Crystallographic Data Centre (CCDC).
# 
# Full information about CCDC data access policies and citation 
# guidelines are available at http://www.ccdc.cam.ac.uk/access/V1 
# 
# Audit and citation data items may have been added by the CCDC. 
# Please retain this information to preserve the provenance of 
# this file and to allow appropriate attribution of the data. 
# 
#######################################################################
@<TRIPOS>MOLECULE
CUPSIS
   117   135     8     0     0
SMALL
NO_CHARGES
****
Generated from the CSD

@<TRIPOS>ATOM
     1 Cu1     11.5475   6.8945   3.3765   Cu        1 RES1   0.0000
     2 Ba1      8.9533   5.1692   1.6509   Ba        1 RES1   0.0000
     3 N1      12.5096   6.3457   4.9369   N.2       1 RES1   0.0000
     4 N2      14.1981   9.3511   5.1207   N.am      1 RES1   0.0000
     5 O1      12.6161   8.6020   3.6045   O.2       1 RES1   0.0000
     6 O2      10.8675   5.0058   3.5239   O.co2     1 RES1   0.0000
     7 O3      10.9391   3.1263   4.5946   O.co2     1 RES1   0.0000
     8 O4      14.1767   7.0342   6.3843   O.3       1 RES1   0.0000
     9 O5      15.9987  12.3983   5.1775   O.co2     1 RES1   0.0000
    10 O6      15.9664  10.5157   6.4861   O.co2     1 RES1   0.0000
    11 C1      13.3941   8.4547   4.5747   C.2       1 RES1   0.0000
    12 C2      13.4085   7.1304   5.3625   C.2       1 RES1   0.0000
    13 C3      12.2723   4.9671   5.4841   C.3       1 RES1   0.0000
    14 H3A     13.1320   4.4575   5.5326   H         1 RES1   0.0000
    15 C4      11.2982   4.3002   4.4571   C.2       1 RES1   0.0000
    16 C5      14.4005  10.6878   4.6805   C.3       1 RES1   0.0000
    17 H5A     14.6725  10.6689   3.7181   H         1 RES1   0.0000
    18 C6      15.5510  11.2476   5.4947   C.2       1 RES1   0.0000
    19 O1HH    10.7929   7.2400   1.6271   O.3       1 RES1   0.0000
    20 C1H     13.1730  11.5609   4.8153   C.3       1 RES1   0.0000
    21 H1HA    13.3934  12.4783   4.5185   H         1 RES1   0.0000
    22 H1HB    12.4613  11.2115   4.2224   H         1 RES1   0.0000
    23 O1H     12.6841  11.6074   6.1556   O.3       1 RES1   0.0000
    24 C1S     11.6187   5.0508   6.8760   C.3       1 RES1   0.0000
    25 H1SA    11.1368   4.2040   7.0551   H         1 RES1   0.0000
    26 H1SB    12.3285   5.1430   7.5597   H         1 RES1   0.0000
    27 C2S     10.6634   6.1875   7.0174   C.3       1 RES1   0.0000
    28 S1      10.7941   6.2216   8.8957   S.3       1 RES1   0.0000
    29 C3S     11.1379   8.0019   9.2262   C.3       1 RES1   0.0000
    30 N1       6.1563   7.6607   4.9369   N.2       1 RES1   0.0000
    31 O1       4.1490   6.6248   3.6045   O.2       1 RES1   0.0000
    32 O2       8.1377   6.9086   3.5239   O.co2     1 RES1   0.0000
    33 O3       9.7296   7.9104   4.5946   O.co2     1 RES1   0.0000
    34 C1       3.8875   7.3723   4.5747   C.2       1 RES1   0.0000
    35 C2       5.0273   8.0469   5.3625   C.2       1 RES1   0.0000
    36 C3       7.4688   8.1446   5.4841   C.3       1 RES1   0.0000
    37 H3A      7.4803   9.1439   5.5326   H         1 RES1   0.0000
    38 C4       8.5334   7.6344   4.4571   C.2       1 RES1   0.0000
    39 C1S      7.7231   7.5367   6.8760   C.3       1 RES1   0.0000
    40 H1SA     8.6974   7.5428   7.0551   H         1 RES1   0.0000
    41 H1SB     7.2884   8.1053   7.5597   H         1 RES1   0.0000
    42 C2S      7.2164   6.1410   7.0174   C.3       1 RES1   0.0000
    43 S1       7.1215   6.2371   8.8957   S.3       1 RES1   0.0000
    44 C3S      5.4078   5.6448   9.2262   C.3       1 RES1   0.0000
    45 N2       2.7093   7.6204   5.1207   N.am      1 RES1   0.0000
    46 O5      -0.8300   7.6561   5.1775   O.co2     1 RES1   0.0000
    47 O6       0.8165   8.5695   6.4861   O.co2     1 RES1   0.0000
    48 C5       1.4504   7.1273   4.6805   C.3       1 RES1   0.0000
    49 H5A      1.3308   7.3723   3.7181   H         1 RES1   0.0000
    50 C6       0.3904   7.8437   5.4947   C.2       1 RES1   0.0000
    51 C1H      1.3081   5.6277   4.8153   C.3       1 RES1   0.0000
    52 H1HA     0.4034   5.3599   4.5185   H         1 RES1   0.0000
    53 H1HB     1.9665   5.1861   4.2224   H         1 RES1   0.0000
    54 O1H      1.5122   5.1811   6.1556   O.3       1 RES1   0.0000
    55 O4       4.7264   8.7602   6.3843   O.3       1 RES1   0.0000
    56 N1       8.1941   1.5011   4.9369   N.2       1 RES1   0.0000
    57 O1      10.0948   0.2807   3.6045   O.2       1 RES1   0.0000
    58 O2       7.8547   3.5931   3.5239   O.co2     1 RES1   0.0000
    59 O3       6.1912   4.4708   4.5946   O.co2     1 RES1   0.0000
    60 C1       9.5782  -0.3195   4.5747   C.2       1 RES1   0.0000
    61 C2       8.4242   0.3303   5.3625   C.2       1 RES1   0.0000
    62 C3       7.1188   2.3959   5.4841   C.3       1 RES1   0.0000
    63 H3A      6.2476   1.9062   5.5326   H         1 RES1   0.0000
    64 C4       7.0283   3.5729   4.4571   C.2       1 RES1   0.0000
    65 C1S      7.5181   2.9201   6.8760   C.3       1 RES1   0.0000
    66 H1SA     7.0257   3.7608   7.0551   H         1 RES1   0.0000
    67 H1SB     7.2430   2.2593   7.5597   H         1 RES1   0.0000
    68 C2S      8.9802   3.1791   7.0174   C.3       1 RES1   0.0000
    69 S1       8.9443   3.0488   8.8957   S.3       1 RES1   0.0000
    70 C3S     10.3142   1.8609   9.2262   C.3       1 RES1   0.0000
    71 N2       9.9525  -1.4639   5.1207   N.am      1 RES1   0.0000
    72 O5      11.6912  -4.5468   5.1775   O.co2     1 RES1   0.0000
    73 O6      10.0769  -3.5776   6.4861   O.co2     1 RES1   0.0000
    74 C5      11.0090  -2.3075   4.6805   C.3       1 RES1   0.0000
    75 H5A     10.8566  -2.5336   3.7181   H         1 RES1   0.0000
    76 C6      10.9185  -3.5838   5.4947   C.2       1 RES1   0.0000
    77 C1H     12.3788  -1.6810   4.8153   C.3       1 RES1   0.0000
    78 H1HA    13.0631  -2.3306   4.5185   H         1 RES1   0.0000
    79 H1HB    12.4321  -0.8900   4.2224   H         1 RES1   0.0000
    80 O1H     12.6635  -1.2809   6.1556   O.3       1 RES1   0.0000
    81 O4       7.9568  -0.2869   6.3843   O.3       1 RES1   0.0000
    82 Cu2     15.2223   8.6996   6.5980   Cu        1 RES1   0.0000
    83 Cu2     11.7147  -6.6745   6.5980   Cu        1 RES1   0.0000
    84 Cu1      6.1620   6.5532   3.3765   Cu        1 RES1   0.0000
    85 O1HH     6.2401   5.7269   1.6271   O.3       1 RES1   0.0000
    86 Cu1      9.1504   2.0599   3.3765   Cu        1 RES1   0.0000
    87 O1HH     9.8269   2.5406   1.6271   O.3       1 RES1   0.0000
    88 Cu2     17.8295  13.4824   6.5980   Cu        1 RES1   0.0000
    89 Ba1      8.9533  -5.1692   8.2599   Ba        1 RES1   0.0000
    90 Ba1      0.0000  10.3384   8.2599   Ba        1 RES1   0.0000
    91 Ba1     17.9066  10.3384   8.2599   Ba        1 RES1   0.0000
    92 N2      11.6626  -7.8872   5.1207   N.3       1 RES1   0.0000
    93 N2      18.9058  14.0437   5.1207   N.3       1 RES1   0.0000
    94 O4      13.6797  -6.7473   6.3843   O.3       1 RES1   0.0000
    95 O4      16.9101  15.2207   6.3843   O.3       1 RES1   0.0000
    96 O5      17.0766   7.6561   5.1775   O.3       1 RES1   0.0000
    97 O6       9.7698  -6.9381   6.4861   O.3       1 RES1   0.0000
    98 O6      19.0302  11.9300   6.4861   O.3       1 RES1   0.0000
    99 O6      10.8935   4.9919  -0.1229   O.3       1 RES1   0.0000
   100 O6       8.1368   6.9381  -0.1229   O.3       1 RES1   0.0000
   101 O6       7.8297   3.5776  -0.1229   O.3       1 RES1   0.0000
   102 O1HH    16.0670   8.2676   8.2361   O.3       1 RES1   0.0000
   103 O1HH    11.6665  -5.7269   8.2361   O.3       1 RES1   0.0000
   104 O1HH    17.0330  12.9670   8.2361   O.3       1 RES1   0.0000
   105 Cu2     -2.6843   8.6996   6.5980   Cu        1 RES1   0.0000
   106 Cu2      2.7614   8.8331   6.5980   Cu        1 RES1   0.0000
   107 Cu2      8.8762  -2.0251   6.5980   Cu        1 RES1   0.0000
   108 Cu2     11.6376   6.8080  -0.0110   Cu        1 RES1   0.0000
   109 Cu2      6.1919   6.6745  -0.0110   Cu        1 RES1   0.0000
   110 Cu2      9.0304   2.0251  -0.0110   Cu        1 RES1   0.0000
   111 O1W     11.9915  10.6103   1.6113   O.3       2 RES2   0.0000
   112 O2W     14.0728  12.6821   8.2613   O.3       3 RES3   0.0000
   113 O3W     13.2401   9.8690   8.4529   O.3       4 RES4   0.0000
   114 O4W     15.9548   5.8526  -0.2366   O.3       5 RES5   0.0000
   115 O5W     10.8245  10.3746   9.9003   O.3       6 RES6   0.0000
   116 O6W     17.9666   4.8926   1.4275   O.3       7 RES7   0.0000
   117 S1'?    10.0635   7.8158   7.7497   S.3       8 RES8   0.0000
@<TRIPOS>BOND
     1     1     3    1
     2     1     5    1
     3     1     6    1
     4     1    19    1
     5     1    33    1
     6     2     6    1
     7     2    19    1
     8     2    32    1
     9     2    58    1
    10     2    85    1
    11     2    87    1
    12     2    99    1
    13     2   100    1
    14     2   101    1
    15     3    12    2
    16     3    13    1
    17     4    11   am
    18     4    16    1
    19     4    82    1
    20     5    11    2
    21     6    15   un
    22     7    15   un
    23     7    86    1
    24     8    12    1
    25     8    82    1
    26     9    18   un
    27     9    88    1
    28    10    18   un
    29    10    82    1
    30    10    91    1
    31    11    12    1
    32    13    14    1
    33    13    15    1
    34    13    24    1
    35    16    17    1
    36    16    18    1
    37    16    20    1
    38    19   108    1
    39    20    21    1
    40    20    22    1
    41    20    23    1
    42    24    25    1
    43    24    26    1
    44    24    27    1
    45    27    28    1
    46    28    29    1
    47    30    35    2
    48    30    36    1
    49    30    84    1
    50    31    34    2
    51    31    84    1
    52    32    38   un
    53    32    84    1
    54    33    38   un
    55    34    35    1
    56    34    45   am
    57    35    55    1
    58    36    37    1
    59    36    38    1
    60    36    39    1
    61    39    40    1
    62    39    41    1
    63    39    42    1
    64    42    43    1
    65    43    44    1
    66    45    48    1
    67    45   106    1
    68    46    50   un
    69    46   105    1
    70    47    50   un
    71    47    90    1
    72    47   106    1
    73    48    49    1
    74    48    50    1
    75    48    51    1
    76    51    52    1
    77    51    53    1
    78    51    54    1
    79    55   106    1
    80    56    61    2
    81    56    62    1
    82    56    86    1
    83    57    60    2
    84    57    86    1
    85    58    64   un
    86    58    86    1
    87    59    64   un
    88    59    84    1
    89    60    61    1
    90    60    71   am
    91    61    81    1
    92    62    63    1
    93    62    64    1
    94    62    65    1
    95    65    66    1
    96    65    67    1
    97    65    68    1
    98    68    69    1
    99    69    70    1
   100    71    74    1
   101    71   107    1
   102    72    76   un
   103    72    83    1
   104    73    76   un
   105    73    89    1
   106    73   107    1
   107    74    75    1
   108    74    76    1
   109    74    77    1
   110    77    78    1
   111    77    79    1
   112    77    80    1
   113    81   107    1
   114    82    96    1
   115    82   102    1
   116    83    92    1
   117    83    94    1
   118    83    97    1
   119    83   103    1
   120    84    85    1
   121    85   109    1
   122    86    87    1
   123    87   110    1
   124    88    93    1
   125    88    95    1
   126    88    98    1
   127    88   104    1
   128    89    97    1
   129    89   103    1
   130    91    98    1
   131    91   102    1
   132    91   104    1
   133    99   108    1
   134   100   109    1
   135   101   110    1
@<TRIPOS>SUBSTRUCTURE
     1 RES1        1 GROUP             0 ****  ****    0  
     2 RES2      111 GROUP             0 ****  ****    0  
     3 RES3      112 GROUP             0 ****  ****    0  
     4 RES4      113 GROUP             0 ****  ****    0  
     5 RES5      114 GROUP             0 ****  ****    0  
     6 RES6      115 GROUP             0 ****  ****    0  
     7 RES7      116 GROUP             0 ****  ****    0  
     8 RES8      117 GROUP             0 ****  ****    0  
@<TRIPOS>CRYSIN
   17.9066   17.9066   13.2180   90.0000   90.0000  120.0000   173     1
