####################################################################### 
# 
# This file contains crystal structure data downloaded from the 
# Cambridge Structural Database (CSD) hosted by the Cambridge 
# Crystallographic Data Centre (CCDC).
# 
# Full information about CCDC data access policies and citation 
# guidelines are available at http://www.ccdc.cam.ac.uk/access/V1 
# 
# Audit and citation data items may have been added by the CCDC. 
# Please retain this information to preserve the provenance of 
# this file and to allow appropriate attribution of the data. 
# 
#######################################################################
@<TRIPOS>MOLECULE
CUPSOY
   129   144    11     0     0
SMALL
NO_CHARGES
****
Generated from the CSD

@<TRIPOS>ATOM
     1 Cu1     11.5091   6.9391 -14.8914   Cu        1 RES1   0.0000
     2 Cu2     11.5500   6.8977 -18.2451   Cu        1 RES1   0.0000
     3 Ca1      8.9845   5.1872 -16.5618   Ca        1 RES1   0.0000
     4 N1      16.1011  10.5243 -11.8483   N.2       1 RES1   0.0000
     5 N2      10.7338   5.0404 -14.8137   N.2       1 RES1   0.0000
     6 O1      12.5945   8.6740 -14.6583   O.2       1 RES1   0.0000
     7 O2      14.2773   6.9949 -11.9778   O.2       1 RES1   0.0000
     8 O3      12.5100   6.3554 -13.3504   O.3       1 RES1   0.0000
     9 O4      14.2889   9.3183 -13.1950   O.3       1 RES1   0.0000
    10 O6      10.9234   3.1310 -13.6223   O.3       1 RES1   0.0000
    11 O1HH    10.6251   7.2393 -16.6006   O.3       1 RES1   0.0000
    12 C1      13.4534   8.4375 -13.7259   C.2       1 RES1   0.0000
    13 C2      13.4633   7.1163 -12.9619   C.2       1 RES1   0.0000
    14 C3      12.3573   4.9050 -13.0267   C.2       1 RES1   0.0000
    15 C4      11.3196   4.3619 -13.7648   C.2       1 RES1   0.0000
    16 C5      15.7013  11.2573 -12.7030   C.2       1 RES1   0.0000
    17 C6      14.5378  10.6706 -13.7130   C.3       1 RES1   0.0000
    18 H6A     14.8240  10.6648 -14.6470   H         1 RES1   0.0000
    19 C2H     13.2908  11.5794 -13.4799   C.3       1 RES1   0.0000
    20 H2HA    13.5077  12.4704 -13.7924   H         1 RES1   0.0000
    21 H2HB    12.5694  11.2448 -14.0308   H         1 RES1   0.0000
    22 O2H'    12.8029  11.6868 -12.1203   O.3       1 RES1   0.0000
    23 C2S     11.1947   4.1083 -10.9419   C.3       1 RES1   0.0000
    24 H2SA    11.2746   3.8534 -10.0112   H         1 RES1   0.0000
    25 H2SB    10.7110   3.4353 -11.4360   H         1 RES1   0.0000
    26 C1S     12.5783   4.4195 -11.5764   C.3       1 RES1   0.0000
    27 H1SA    13.1244   3.6256 -11.5723   H         1 RES1   0.0000
    28 H1SB    13.0242   5.1099 -11.0631   H         1 RES1   0.0000
    29 C3S      9.4427   5.4932  -9.6341   C.3       1 RES1   0.0000
    30 S1      10.4669   5.8045 -11.1491   S.3       1 RES1   0.0000
    31 N1       0.8041   8.6818 -11.8483   N.2       1 RES1   0.0000
    32 N2       8.2370   6.7755 -14.8137   N.2       1 RES1   0.0000
    33 O1       4.1598   6.5701 -14.6583   O.2       1 RES1   0.0000
    34 O2       4.7726   8.8670 -11.9778   O.2       1 RES1   0.0000
    35 O3       6.2101   7.6563 -13.3504   O.3       1 RES1   0.0000
    36 O4       2.7546   7.7154 -13.1950   O.3       1 RES1   0.0000
    37 O6       9.7958   7.8944 -13.6223   O.3       1 RES1   0.0000
    38 C1       3.9352   7.4322 -13.7259   C.2       1 RES1   0.0000
    39 C2       5.0744   8.1014 -12.9619   C.2       1 RES1   0.0000
    40 C3       7.5425   8.2492 -13.0267   C.2       1 RES1   0.0000
    41 C4       8.5317   7.6221 -13.7648   C.2       1 RES1   0.0000
    42 C5       0.3693   7.9691 -12.7030   C.2       1 RES1   0.0000
    43 C6       1.4591   7.2548 -13.7130   C.3       1 RES1   0.0000
    44 H6A      1.3210   7.5056 -14.6470   H         1 RES1   0.0000
    45 C2H      1.2956   5.7204 -13.4799   C.3       1 RES1   0.0000
    46 H2HA     0.4154   5.4628 -13.7924   H         1 RES1   0.0000
    47 H2HB     1.9460   5.2630 -14.0308   H         1 RES1   0.0000
    48 O2H'     1.4465   5.2443 -12.1203   O.3       1 RES1   0.0000
    49 C2S      8.8138   7.6408 -10.9419   C.3       1 RES1   0.0000
    50 H2SA     8.9946   7.8374 -10.0112   H         1 RES1   0.0000
    51 H2SB     9.6384   7.5584 -11.4360   H         1 RES1   0.0000
    52 C1S      7.8525   8.6834 -11.5764   C.3       1 RES1   0.0000
    53 H1SA     8.2670   9.5532 -11.5723   H         1 RES1   0.0000
    54 H1SB     7.0316   8.7243 -11.0631   H         1 RES1   0.0000
    55 C3S      8.4904   5.4310  -9.6341   C.3       1 RES1   0.0000
    56 S1       7.7087   6.1624 -11.1491   S.3       1 RES1   0.0000
    57 N1      10.0483  -3.6445 -11.8483   N.3       1 RES1   0.0000
    58 N2       7.9827   3.7457 -14.8137   N.2       1 RES1   0.0000
    59 O1      10.1992   0.3175 -14.6583   O.2       1 RES1   0.0000
    60 O2       7.9037  -0.3003 -11.9778   O.2       1 RES1   0.0000
    61 O3       8.2334   1.5499 -13.3504   O.3       1 RES1   0.0000
    62 O4       9.9099  -1.4721 -13.1950   O.3       1 RES1   0.0000
    63 O6       6.2343   4.5362 -13.6223   O.3       1 RES1   0.0000
    64 C1       9.5649  -0.3081 -13.7259   C.2       1 RES1   0.0000
    65 C2       8.4158   0.3439 -12.9619   C.2       1 RES1   0.0000
    66 C3       7.0537   2.4074 -13.0267   C.2       1 RES1   0.0000
    67 C4       7.1022   3.5776 -13.7648   C.2       1 RES1   0.0000
    68 C5      10.8829  -3.6648 -12.7030   C.2       1 RES1   0.0000
    69 C6      10.9566  -2.3638 -13.7130   C.3       1 RES1   0.0000
    70 H6A     10.8085  -2.6088 -14.6470   H         1 RES1   0.0000
    71 C2H     12.3672  -1.7382 -13.4799   C.3       1 RES1   0.0000
    72 H2HA    13.0303  -2.3716 -13.7924   H         1 RES1   0.0000
    73 H2HB    12.4381  -0.9462 -14.0308   H         1 RES1   0.0000
    74 O2H'    12.7041  -1.3694 -12.1203   O.3       1 RES1   0.0000
    75 C2S      6.9450   3.8126 -10.9419   C.3       1 RES1   0.0000
    76 H2SA     6.6844   3.8709 -10.0112   H         1 RES1   0.0000
    77 H2SB     6.6041   4.5680 -11.4360   H         1 RES1   0.0000
    78 C1S      6.5227   2.4587 -11.5764   C.3       1 RES1   0.0000
    79 H1SA     5.5622   2.3828 -11.5723   H         1 RES1   0.0000
    80 H1SB     6.8977   1.7274 -11.0631   H         1 RES1   0.0000
    81 C3S      9.0204   4.6374  -9.6341   C.3       1 RES1   0.0000
    82 S1       8.7779   3.5947 -11.1491   S.3       1 RES1   0.0000
    83 Cu1      6.2051   6.4976 -14.8914   Cu        1 RES1   0.0000
    84 Cu2      6.2204   6.5538 -18.2451   Cu        1 RES1   0.0000
    85 O1HH     6.3871   5.5819 -16.6006   O.3       1 RES1   0.0000
    86 Cu1      9.2394   2.1249 -14.8914   Cu        1 RES1   0.0000
    87 Cu2      9.1831   2.1102 -18.2451   Cu        1 RES1   0.0000
    88 O1HH     9.9413   2.7404 -16.6006   O.3       1 RES1   0.0000
    89 Cu2     15.4035   8.6639 -11.7706   Cu        1 RES1   0.0000
    90 Cu2      2.7641   9.0078 -11.7706   Cu        1 RES1   0.0000
    91 Cu2      8.7859  -2.1102 -11.7706   Cu        1 RES1   0.0000
    92 Ca1      8.9845  -5.1872 -10.0873   Ca        1 RES1   0.0000
    93 Ca1      0.0000  10.3744 -10.0873   Ca        1 RES1   0.0000
    94 Ca1     17.9690  10.3744 -10.0873   Ca        1 RES1   0.0000
    95 N1      10.8524   5.0373 -18.3228   N.2       1 RES1   0.0000
    96 N1       8.1804   6.8798 -18.3228   N.2       1 RES1   0.0000
    97 N1       7.9207   3.6445 -18.3228   N.2       1 RES1   0.0000
    98 O2      12.6762   8.5667 -18.4523   O.3       1 RES1   0.0000
    99 O2       4.2119   6.6946 -18.4523   O.3       1 RES1   0.0000
   100 O2      10.0653   0.3003 -18.4523   O.3       1 RES1   0.0000
   101 O4      12.6646   6.2433 -19.6695   O.3       1 RES1   0.0000
   102 O4       6.2299   7.8462 -19.6695   O.3       1 RES1   0.0000
   103 O4       8.0591   1.4721 -19.6695   O.3       1 RES1   0.0000
   104 Hg1     10.7814   7.9364  -9.3362   Hg        2 RES2   0.0000
   105 Cl1     11.0509   9.8661  -8.3392   Cl        2 RES2   0.0000
   106 Cl2     12.2010   9.0257 -10.6311   Cl        2 RES2   0.0000
   107 Hg1      5.7052   5.3688  -9.3362   Hg        3 RES3   0.0000
   108 Cl1      3.8993   4.6374  -8.3392   Cl        3 RES3   0.0000
   109 Cl2      4.0520   6.0535 -10.6311   Cl        3 RES3   0.0000
   110 Hg1     10.4669   2.2564  -9.3362   Hg        4 RES4   0.0000
   111 Cl1     12.0033   1.0582  -8.3392   Cl        4 RES4   0.0000
   112 Cl2     10.7005   0.4824 -10.6311   Cl        4 RES4   0.0000
   113 O1W     12.2189  10.7686  -3.3797   O.3       5 RES5   0.0000
   114 O2W      9.0564   9.9594  -3.3667   O.3       6 RES6   0.0000
   115 S1L     11.1767  11.8268  -6.0860   S.3       7 RES7   0.0000
   116 C7L      8.3286  12.7450  -5.6522   C.2       7 RES7   0.0000
   117 C9L      9.6044  12.3404  -5.2702   C.2       7 RES7   0.0000
   118 C10L     9.9009  12.1381  -3.9235   C.2       7 RES7   0.0000
   119 C11L     8.9216  12.3715  -2.9614   C.2       7 RES7   0.0000
   120 C1L     10.3681  12.2314  -7.6529   C.2       7 RES7   0.0000
   121 C2L      9.1103  12.6983  -7.9753   C.2       7 RES7   0.0000
   122 C4L      8.7689  12.9161  -9.3103   C.2       7 RES7   0.0000
   123 N4'      8.1220  13.0406  -7.0184   N.2       7 RES7   0.0000
   124 C8L      7.3493  12.9784  -4.6875   C.2       7 RES7   0.0000
   125 C12L     7.6458  12.7761  -3.3408   C.2       7 RES7   0.0000
   126 O5?     16.0751  12.4026 -13.0008   O.3       8 RES8   0.0000
   127 C5L?     9.6853  12.6672 -10.3113   C.3       9 RES9   0.0000
   128 C3L?    11.3025  11.9824  -8.6629   C.3      10 RES10   0.0000
   129 C6L?     7.0618  12.1692  -3.5092   C.3      11 RES11   0.0000
@<TRIPOS>BOND
     1     1     5    1
     2     1     6    1
     3     1     8    1
     4     1    11    1
     5     1    37    1
     6     2    11    1
     7     2    95    1
     8     2    98    1
     9     2   101    1
    10     3     5    1
    11     3    11    1
    12     3    32    1
    13     3    58    1
    14     3    85    1
    15     3    88    1
    16     3    95    1
    17     3    96    1
    18     3    97    1
    19     4    16    2
    20     4    89    1
    21     4    94    1
    22     5    15    2
    23     6    12    2
    24     7    13    2
    25     7    89    1
    26     8    13    1
    27     8    14    1
    28     9    12    1
    29     9    17    1
    30     9    89    1
    31    10    15    1
    32    10    86    1
    33    12    13    1
    34    14    15    1
    35    14    26    1
    36    16    17    1
    37    17    18    1
    38    17    19    1
    39    19    20    1
    40    19    21    1
    41    19    22    1
    42    23    24    1
    43    23    25    1
    44    23    26    1
    45    23    30    1
    46    26    27    1
    47    26    28    1
    48    29    30    1
    49    29    55    1
    50    29    81    1
    51    31    42    2
    52    31    90    1
    53    31    93    1
    54    32    41    2
    55    32    83    1
    56    33    38    2
    57    33    83    1
    58    34    39    2
    59    34    90    1
    60    35    39    1
    61    35    40    1
    62    35    83    1
    63    36    38    1
    64    36    43    1
    65    36    90    1
    66    37    41    1
    67    38    39    1
    68    40    41    1
    69    40    52    1
    70    42    43    1
    71    43    44    1
    72    43    45    1
    73    45    46    1
    74    45    47    1
    75    45    48    1
    76    49    50    1
    77    49    51    1
    78    49    52    1
    79    49    56    1
    80    52    53    1
    81    52    54    1
    82    55    56    1
    83    55    81    1
    84    57    68    1
    85    57    91    1
    86    57    92    1
    87    58    67    2
    88    58    86    1
    89    59    64    2
    90    59    86    1
    91    60    65    2
    92    60    91    1
    93    61    65    1
    94    61    66    1
    95    61    86    1
    96    62    64    1
    97    62    69    1
    98    62    91    1
    99    63    67    1
   100    63    83    1
   101    64    65    1
   102    66    67    1
   103    66    78    1
   104    68    69    1
   105    69    70    1
   106    69    71    1
   107    71    72    1
   108    71    73    1
   109    71    74    1
   110    75    76    1
   111    75    77    1
   112    75    78    1
   113    75    82    1
   114    78    79    1
   115    78    80    1
   116    81    82    1
   117    83    85    1
   118    84    85    1
   119    84    96    1
   120    84    99    1
   121    84   102    1
   122    86    88    1
   123    87    88    1
   124    87    97    1
   125    87   100    1
   126    87   103    1
   127   104   105    1
   128   104   106    1
   129   107   108    1
   130   107   109    1
   131   110   111    1
   132   110   112    1
   133   115   117    1
   134   115   120    1
   135   116   117    2
   136   116   123    1
   137   116   124    1
   138   117   118    1
   139   118   119    2
   140   119   125    1
   141   120   121    2
   142   121   122    1
   143   121   123    1
   144   124   125    2
@<TRIPOS>SUBSTRUCTURE
     1 RES1        1 GROUP             0 ****  ****    0  
     2 RES2      104 GROUP             0 ****  ****    0  
     3 RES3      107 GROUP             0 ****  ****    0  
     4 RES4      110 GROUP             0 ****  ****    0  
     5 RES5      113 GROUP             0 ****  ****    0  
     6 RES6      114 GROUP             0 ****  ****    0  
     7 RES7      115 GROUP             0 ****  ****    0  
     8 RES8      126 GROUP             0 ****  ****    0  
     9 RES9      127 GROUP             0 ****  ****    0  
    10 RES10     128 GROUP             0 ****  ****    0  
    11 RES11     129 GROUP             0 ****  ****    0  
@<TRIPOS>CRYSIN
   17.9690   17.9690   12.9490   90.0000   90.0000  120.0000   173     1
