####################################################################### 
# 
# This file contains crystal structure data downloaded from the 
# Cambridge Structural Database (CSD) hosted by the Cambridge 
# Crystallographic Data Centre (CCDC).
# 
# Full information about CCDC data access policies and citation 
# guidelines are available at http://www.ccdc.cam.ac.uk/access/V1 
# 
# Audit and citation data items may have been added by the CCDC. 
# Please retain this information to preserve the provenance of 
# this file and to allow appropriate attribution of the data. 
# 
#######################################################################
@<TRIPOS>MOLECULE
LUDBOB02
    63    68     1     0     0
SMALL
NO_CHARGES
****
Generated from the CSD

@<TRIPOS>ATOM
     1 Cu1      4.1685  12.5067   5.5170   Cu        1 RES1   0.0000
     2 O1       3.6109  12.6030   3.1542   O.co2     1 RES1   0.0000
     3 O2       5.6004  12.5056   4.0976   O.co2     1 RES1   0.0000
     4 O3       3.6115  14.2103  -1.4958   O.3       1 RES1   0.0000
     5 H3       3.1268  14.3696  -2.1627   H         1 RES1   0.0000
     6 O4       4.8131  13.0186  -2.9761   O.2       1 RES1   0.0000
     7 O5       9.3226  11.7315  -1.0394   O.3       1 RES1   0.0000
     8 H5      10.0965  11.4053  -1.0549   H         1 RES1   0.0000
     9 O6       9.4444  11.1816   1.1319   O.2       1 RES1   0.0000
    10 N1       4.1685  10.5303   5.5170   N.2       1 RES1   0.0000
    11 N2       4.1685   3.4657   5.5170   N.2       1 RES1   0.0000
    12 C1       4.8652  12.5568   3.0608   C.2       1 RES1   0.0000
    13 C2       5.5248  12.5634   1.7211   C.2       1 RES1   0.0000
    14 C3       4.8229  12.9998   0.6073   C.2       1 RES1   0.0000
    15 H3a      3.9383  13.3315   0.7117   H         1 RES1   0.0000
    16 C4       5.3940  12.9590  -0.6596   C.2       1 RES1   0.0000
    17 C5       4.5990  13.3844  -1.8471   C.2       1 RES1   0.0000
    18 C6       6.6893  12.4929  -0.8181   C.2       1 RES1   0.0000
    19 H6       7.0783  12.4488  -1.6836   H         1 RES1   0.0000
    20 C7       7.4162  12.0896   0.2984   C.2       1 RES1   0.0000
    21 C8       8.8256  11.6202   0.1635   C.2       1 RES1   0.0000
    22 C9       6.8373  12.1282   1.5615   C.2       1 RES1   0.0000
    23 H9       7.3399  11.8549   2.3200   H         1 RES1   0.0000
    24 C10      3.2756   9.8416   4.7963   C.2       1 RES1   0.0000
    25 H10      2.6428  10.3232   4.2761   H         1 RES1   0.0000
    26 C11      3.2339   8.4653   4.7766   C.2       1 RES1   0.0000
    27 H11      2.5754   8.0135   4.2631   H         1 RES1   0.0000
    28 C12      4.1685   7.7391   5.5170   C.2       1 RES1   0.0000
    29 C13      4.1685   6.2613   5.5170   C.2       1 RES1   0.0000
    30 C14      3.0566   5.5285   5.0933   C.2       1 RES1   0.0000
    31 H14      2.2735   5.9803   4.8011   H         1 RES1   0.0000
    32 C15      3.0956   4.1423   5.0999   C.2       1 RES1   0.0000
    33 H15      2.3358   3.6585   4.7978   H         1 RES1   0.0000
    34 C10      5.0614   9.8416   6.2378   C.2       1 RES1   0.0000
    35 H10      5.6941  10.3232   6.7579   H         1 RES1   0.0000
    36 C11      5.1030   8.4653   6.2574   C.2       1 RES1   0.0000
    37 H11      5.7616   8.0135   6.7709   H         1 RES1   0.0000
    38 C14      5.2803   5.5285   5.9407   C.2       1 RES1   0.0000
    39 H14      6.0634   5.9803   6.2329   H         1 RES1   0.0000
    40 C15      5.2413   4.1423   5.9341   C.2       1 RES1   0.0000
    41 H15      6.0011   3.6585   6.2362   H         1 RES1   0.0000
    42 O1       4.7260  12.6030   7.8799   O.co2     1 RES1   0.0000
    43 O2       2.7365  12.5056   6.9364   O.co2     1 RES1   0.0000
    44 O3       4.7254  14.2103  12.5298   O.3       1 RES1   0.0000
    45 H3       5.2102  14.3696  13.1967   H         1 RES1   0.0000
    46 O4       3.5239  13.0186  14.0102   O.2       1 RES1   0.0000
    47 O5      -0.9856  11.7315  12.0735   O.3       1 RES1   0.0000
    48 H5      -1.7596  11.4053  12.0889   H         1 RES1   0.0000
    49 O6      -1.1075  11.1816   9.9022   O.2       1 RES1   0.0000
    50 C1       3.4717  12.5568   7.9732   C.2       1 RES1   0.0000
    51 C2       2.8122  12.5634   9.3130   C.2       1 RES1   0.0000
    52 C3       3.5141  12.9998  10.4267   C.2       1 RES1   0.0000
    53 H3a      4.3986  13.3315  10.3224   H         1 RES1   0.0000
    54 C4       2.9430  12.9590  11.6937   C.2       1 RES1   0.0000
    55 C5       3.7380  13.3844  12.8812   C.2       1 RES1   0.0000
    56 C6       1.6476  12.4929  11.8521   C.2       1 RES1   0.0000
    57 H6       1.2587  12.4488  12.7176   H         1 RES1   0.0000
    58 C7       0.9208  12.0896  10.7357   C.2       1 RES1   0.0000
    59 C8      -0.4887  11.6202  10.8705   C.2       1 RES1   0.0000
    60 C9       1.4996  12.1282   9.4725   C.2       1 RES1   0.0000
    61 H9       0.9971  11.8549   8.7140   H         1 RES1   0.0000
    62 Cu1      4.1685   1.4871   5.5170   Cu        1 RES1   0.0000
    63 N2       4.1685  14.4853   5.5170   N.3       1 RES1   0.0000
@<TRIPOS>BOND
     1     1     2    1
     2     1     3    1
     3     1    10    1
     4     1    42    1
     5     1    43    1
     6     1    63    1
     7     2    12   un
     8     3    12   un
     9     4     5    1
    10     4    17    1
    11     6    17    2
    12     7     8    1
    13     7    21    1
    14     9    21    2
    15    10    24    2
    16    10    34    1
    17    11    32    2
    18    11    40    1
    19    11    62    1
    20    12    13    1
    21    13    14    2
    22    13    22    1
    23    14    15    1
    24    14    16    1
    25    16    17    1
    26    16    18    2
    27    18    19    1
    28    18    20    1
    29    20    21    1
    30    20    22    2
    31    22    23    1
    32    24    25    1
    33    24    26    1
    34    26    27    1
    35    26    28    2
    36    28    29    1
    37    28    36    1
    38    29    30    2
    39    29    38    1
    40    30    31    1
    41    30    32    1
    42    32    33    1
    43    34    35    1
    44    34    36    2
    45    36    37    1
    46    38    39    1
    47    38    40    2
    48    40    41    1
    49    42    50   un
    50    43    50   un
    51    44    45    1
    52    44    55    1
    53    46    55    2
    54    47    48    1
    55    47    59    1
    56    49    59    2
    57    50    51    1
    58    51    52    2
    59    51    60    1
    60    52    53    1
    61    52    54    1
    62    54    55    1
    63    54    56    2
    64    56    57    1
    65    56    58    1
    66    58    59    1
    67    58    60    2
    68    60    61    1
@<TRIPOS>SUBSTRUCTURE
     1 RES1        1 GROUP             0 ****  ****    0  
@<TRIPOS>CRYSIN
   10.6268   11.0196   22.5383   90.0000  101.7240   90.0000    15     1
