####################################################################### 
# 
# This file contains crystal structure data downloaded from the 
# Cambridge Structural Database (CSD) hosted by the Cambridge 
# Crystallographic Data Centre (CCDC).
# 
# Full information about CCDC data access policies and citation 
# guidelines are available at http://www.ccdc.cam.ac.uk/access/V1 
# 
# Audit and citation data items may have been added by the CCDC. 
# Please retain this information to preserve the provenance of 
# this file and to allow appropriate attribution of the data. 
# 
#######################################################################
@<TRIPOS>MOLECULE
XUTGIF
    80    89     1     0     0
SMALL
NO_CHARGES
****
Generated from the CSD

@<TRIPOS>ATOM
     1 Zn1      1.8174   5.9659   2.5404   Zn        1 RES1   0.0000
     2 O1      -5.0045   6.1075   1.6082   O.co2     1 RES1   0.0000
     3 N2      -0.1295   5.6771   1.8277   N.2       1 RES1   0.0000
     4 N3       1.1284   7.9662   1.8208   N.2       1 RES1   0.0000
     5 O2      -4.7074   4.1272   0.5867   O.co2     1 RES1   0.0000
     6 O3       1.8274   6.5844   4.4089   O.co2     1 RES1   0.0000
     7 C4      -0.8943   6.7337   1.5042   C.2       1 RES1   0.0000
     8 C12     -0.1772   8.0373   1.4981   C.2       1 RES1   0.0000
     9 C2      -2.8167   5.3244   1.3337   C.2       1 RES1   0.0000
    10 C7       0.3090   3.3829   2.2422   C.2       1 RES1   0.0000
    11 C17      2.7892   6.1415   5.1344   C.2       1 RES1   0.0000
    12 O4       3.6344   5.3459   4.7382   O.co2     1 RES1   0.0000
    13 C11      2.4386   2.9316   3.0094   C.2       1 RES1   0.0000
    14 H11      3.2626   3.2407   3.3100   H         1 RES1   0.0000
    15 C13     -0.8039   9.2427   1.2006   C.2       1 RES1   0.0000
    16 H13     -1.7033   9.2667   0.9644   H         1 RES1   0.0000
    17 N1       1.4974   3.8261   2.6662   N.2       1 RES1   0.0000
    18 C6      -2.0139   4.2334   1.6091   C.2       1 RES1   0.0000
    19 H6      -2.3679   3.3735   1.6189   H         1 RES1   0.0000
    20 C5      -0.6590   4.4502   1.8725   C.2       1 RES1   0.0000
    21 C16      1.8384   9.0919   1.8379   C.2       1 RES1   0.0000
    22 H16      2.7471   9.0389   2.0302   H         1 RES1   0.0000
    23 C3      -2.2502   6.5926   1.2684   C.2       1 RES1   0.0000
    24 H3      -2.7746   7.3340   1.0686   H         1 RES1   0.0000
    25 C1      -4.3079   5.1414   1.1429   C.2       1 RES1   0.0000
    26 C8       0.0154   2.0289   2.1412   C.2       1 RES1   0.0000
    27 H8      -0.8201   1.7414   1.8523   H         1 RES1   0.0000
    28 C14     -0.0546  10.4106   1.2654   C.2       1 RES1   0.0000
    29 H14     -0.4530  11.2332   1.0964   H         1 RES1   0.0000
    30 C15      1.2912  10.3387   1.5839   C.2       1 RES1   0.0000
    31 H15      1.8135  11.1070   1.6258   H         1 RES1   0.0000
    32 C10      2.2262   1.5683   2.9308   C.2       1 RES1   0.0000
    33 H10      2.8941   0.9696   3.1738   H         1 RES1   0.0000
    34 C9       1.0050   1.1156   2.4847   C.2       1 RES1   0.0000
    35 H9       0.8429   0.2030   2.4137   H         1 RES1   0.0000
    36 C18      2.8535   6.7386   6.5311   C.3       1 RES1   0.0000
    37 H18A     2.8963   7.7049   6.4518   H         1 RES1   0.0000
    38 H18B     2.0314   6.5205   6.9980   H         1 RES1   0.0000
    39 O3       5.0390   6.4306   9.4870   O.co2     1 RES1   0.0000
    40 C17      4.0773   6.8735   8.7615   C.2       1 RES1   0.0000
    41 O4       3.2321   7.6691   9.1577   O.co2     1 RES1   0.0000
    42 C18      4.0129   6.2764   7.3648   C.3       1 RES1   0.0000
    43 H18A     3.9701   5.3101   7.4440   H         1 RES1   0.0000
    44 H18B     4.8350   6.4945   6.8979   H         1 RES1   0.0000
    45 Zn1      5.0491   7.0491  11.3554   Zn        1 RES1   0.0000
    46 O1      11.8709   6.9075  12.2877   O.co2     1 RES1   0.0000
    47 N2       6.9960   7.3379  12.0681   N.2       1 RES1   0.0000
    48 N3       5.7380   5.0488  12.0751   N.2       1 RES1   0.0000
    49 O2      11.5739   8.8878  13.3092   O.co2     1 RES1   0.0000
    50 C4       7.7608   6.2813  12.3916   C.2       1 RES1   0.0000
    51 C12      7.0436   4.9777  12.3978   C.2       1 RES1   0.0000
    52 C2       9.6832   7.6906  12.5621   C.2       1 RES1   0.0000
    53 C7       6.5575   9.6321  11.6536   C.2       1 RES1   0.0000
    54 C11      4.4278  10.0834  10.8864   C.2       1 RES1   0.0000
    55 H11      3.6039   9.7743  10.5859   H         1 RES1   0.0000
    56 C13      7.6704   3.7723  12.6953   C.2       1 RES1   0.0000
    57 H13      8.5698   3.7483  12.9315   H         1 RES1   0.0000
    58 N1       5.3691   9.1889  11.2297   N.2       1 RES1   0.0000
    59 C6       8.8803   8.7816  12.2867   C.2       1 RES1   0.0000
    60 H6       9.2344   9.6415  12.2770   H         1 RES1   0.0000
    61 C5       7.5255   8.5648  12.0234   C.2       1 RES1   0.0000
    62 C16      5.0281   3.9231  12.0580   C.2       1 RES1   0.0000
    63 H16      4.1194   3.9761  11.8657   H         1 RES1   0.0000
    64 C3       9.1167   6.4224  12.6274   C.2       1 RES1   0.0000
    65 H3       9.6411   5.6810  12.8273   H         1 RES1   0.0000
    66 C1      11.1744   7.8736  12.7529   C.2       1 RES1   0.0000
    67 C8       6.8511  10.9861  11.7547   C.2       1 RES1   0.0000
    68 H8       7.6865  11.2736  12.0435   H         1 RES1   0.0000
    69 C14      6.9210   2.6044  12.6305   C.2       1 RES1   0.0000
    70 H14      7.3195   1.7818  12.7995   H         1 RES1   0.0000
    71 C15      5.5752   2.6763  12.3120   C.2       1 RES1   0.0000
    72 H15      5.0529   1.9080  12.2700   H         1 RES1   0.0000
    73 C10      4.6402  11.4467  10.9651   C.2       1 RES1   0.0000
    74 H10      3.9723  12.0454  10.7220   H         1 RES1   0.0000
    75 C9       5.8614  11.8994  11.4111   C.2       1 RES1   0.0000
    76 H9       6.0236  12.8120  11.4822   H         1 RES1   0.0000
    77 Zn1     -6.7144   5.9659   2.5404   Zn        1 RES1   0.0000
    78 Zn1     13.5809   7.0491  11.3554   Zn        1 RES1   0.0000
    79 O1       3.5273   6.1075   1.6082   O.3       1 RES1   0.0000
    80 O1       3.3391   6.9075  12.2877   O.3       1 RES1   0.0000
@<TRIPOS>BOND
     1     1     3    1
     2     1     4    1
     3     1     6    1
     4     1    17    1
     5     1    79    1
     6     2    25    1
     7     2    77    1
     8     3     7    1
     9     3    20    2
    10     4     8    1
    11     4    21    2
    12     5    25    2
    13     6    11    1
    14     7     8    1
    15     7    23    2
    16     8    15    2
    17     9    18    2
    18     9    23    1
    19     9    25    1
    20    10    17    1
    21    10    20    1
    22    10    26    2
    23    11    12    2
    24    11    36    1
    25    13    14    1
    26    13    17    2
    27    13    32    1
    28    15    16    1
    29    15    28    1
    30    18    19    1
    31    18    20    1
    32    21    22    1
    33    21    30    1
    34    23    24    1
    35    26    27    1
    36    26    34    1
    37    28    29    1
    38    28    30    2
    39    30    31    1
    40    32    33    1
    41    32    34    2
    42    34    35    1
    43    36    37    1
    44    36    38    1
    45    36    42    1
    46    39    40    1
    47    39    45    1
    48    40    41    2
    49    40    42    1
    50    42    43    1
    51    42    44    1
    52    45    47    1
    53    45    48    1
    54    45    58    1
    55    45    80    1
    56    46    66    1
    57    46    78    1
    58    47    50    1
    59    47    61    2
    60    48    51    1
    61    48    62    2
    62    49    66    2
    63    50    51    1
    64    50    64    2
    65    51    56    2
    66    52    59    2
    67    52    64    1
    68    52    66    1
    69    53    58    1
    70    53    61    1
    71    53    67    2
    72    54    55    1
    73    54    58    2
    74    54    73    1
    75    56    57    1
    76    56    69    1
    77    59    60    1
    78    59    61    1
    79    62    63    1
    80    62    71    1
    81    64    65    1
    82    67    68    1
    83    67    75    1
    84    69    70    1
    85    69    71    2
    86    71    72    1
    87    73    74    1
    88    73    75    2
    89    75    76    1
@<TRIPOS>SUBSTRUCTURE
     1 RES1        1 GROUP             0 ****  ****    0  
@<TRIPOS>CRYSIN
    8.5318   13.0150   13.9953   90.0000   96.8340   90.0000    14     1
