####################################################################### 
# 
# This file contains crystal structure data downloaded from the 
# Cambridge Structural Database (CSD) hosted by the Cambridge 
# Crystallographic Data Centre (CCDC).
# 
# Full information about CCDC data access policies and citation 
# guidelines are available at http://www.ccdc.cam.ac.uk/access/V1 
# 
# Audit and citation data items may have been added by the CCDC. 
# Please retain this information to preserve the provenance of 
# this file and to allow appropriate attribution of the data. 
# 
#######################################################################
@<TRIPOS>MOLECULE
XUTGEB
    84    94     1     0     0
SMALL
NO_CHARGES
****
Generated from the CSD

@<TRIPOS>ATOM
     1 Zn1      2.2584   6.2600   4.9749   Zn        1 RES1   0.0000
     2 O1       9.1033   6.3839   5.7081   O.co2     1 RES1   0.0000
     3 O2       8.8328   4.4771   6.8593   O.co2     1 RES1   0.0000
     4 O3       2.0141   6.3148   3.0285   O.co2     1 RES1   0.0000
     5 O4       1.1188   8.3569   3.0271   O.co2     1 RES1   0.0000
     6 N1       4.2271   5.9541   5.5816   N.2       1 RES1   0.0000
     7 N2       2.5716   4.0754   4.8173   N.2       1 RES1   0.0000
     8 N3       2.9399   8.2279   5.6481   N.2       1 RES1   0.0000
     9 C1       8.4153   5.4511   6.2414   C.2       1 RES1   0.0000
    10 C2       6.9215   5.6222   6.0397   C.2       1 RES1   0.0000
    11 C3       6.1267   4.5281   5.7277   C.2       1 RES1   0.0000
    12 H3       6.5005   3.6563   5.6790   H         1 RES1   0.0000
    13 C4       4.7732   4.7320   5.4883   C.2       1 RES1   0.0000
    14 C5       4.9830   7.0144   5.9113   C.2       1 RES1   0.0000
    15 C6       6.3463   6.8841   6.1354   C.2       1 RES1   0.0000
    16 H6       6.8759   7.6428   6.3502   H         1 RES1   0.0000
    17 C7       3.8145   3.6583   5.0999   C.2       1 RES1   0.0000
    18 C8       4.1722   2.3213   5.0356   C.2       1 RES1   0.0000
    19 H8       5.0582   2.0496   5.2453   H         1 RES1   0.0000
    20 C9       3.2235   1.3909   4.6626   C.2       1 RES1   0.0000
    21 H9       3.4440   0.4680   4.6231   H         1 RES1   0.0000
    22 C10      1.9476   1.8189   4.3476   C.2       1 RES1   0.0000
    23 H10      1.2816   1.1998   4.0721   H         1 RES1   0.0000
    24 C11      1.6637   3.1653   4.4415   C.2       1 RES1   0.0000
    25 H11      0.7855   3.4601   4.2310   H         1 RES1   0.0000
    26 C12      4.2495   8.3087   5.9512   C.2       1 RES1   0.0000
    27 C13      4.8657   9.5147   6.2499   C.2       1 RES1   0.0000
    28 H13      5.7906   9.5439   6.4661   H         1 RES1   0.0000
    29 C14      4.1118  10.6727   6.2267   C.2       1 RES1   0.0000
    30 H14      4.5150  11.5139   6.4037   H         1 RES1   0.0000
    31 C15      2.7592  10.5884   5.9426   C.2       1 RES1   0.0000
    32 H15      2.2177  11.3694   5.9389   H         1 RES1   0.0000
    33 C16      2.2101   9.3535   5.6650   C.2       1 RES1   0.0000
    34 H16      1.2803   9.2986   5.4785   H         1 RES1   0.0000
    35 C17      1.2970   7.2431   2.5233   C.2       1 RES1   0.0000
    36 C18      0.6409   6.9179   1.2059   C.2       1 RES1   0.0000
    37 C19      0.5913   5.6116   0.7317   C.2       1 RES1   0.0000
    38 H19      0.9969   4.9131   1.2311   H         1 RES1   0.0000
    39 C20      0.0455   7.9348   0.4648   C.2       1 RES1   0.0000
    40 H20      0.0757   8.8306   0.7797   H         1 RES1   0.0000
    41 O3      -2.0141   6.9424  -3.0285   O.co2     1 RES1   0.0000
    42 O4      -1.1188   4.9003  -3.0271   O.co2     1 RES1   0.0000
    43 C17     -1.2970   6.0141  -2.5233   C.2       1 RES1   0.0000
    44 C18     -0.6409   6.3393  -1.2059   C.2       1 RES1   0.0000
    45 C19     -0.5913   7.6456  -0.7317   C.2       1 RES1   0.0000
    46 H19     -0.9969   8.3441  -1.2311   H         1 RES1   0.0000
    47 C20     -0.0455   5.3224  -0.4648   C.2       1 RES1   0.0000
    48 H20     -0.0757   4.4266  -0.7797   H         1 RES1   0.0000
    49 Zn1     -2.2584   6.9972  -4.9749   Zn        1 RES1   0.0000
    50 O1      -9.1033   6.8733  -5.7081   O.co2     1 RES1   0.0000
    51 O2      -8.8328   8.7801  -6.8593   O.co2     1 RES1   0.0000
    52 N1      -4.2271   7.3031  -5.5816   N.2       1 RES1   0.0000
    53 N2      -2.5716   9.1818  -4.8173   N.2       1 RES1   0.0000
    54 N3      -2.9399   5.0293  -5.6481   N.2       1 RES1   0.0000
    55 C1      -8.4153   7.8061  -6.2414   C.2       1 RES1   0.0000
    56 C2      -6.9215   7.6350  -6.0397   C.2       1 RES1   0.0000
    57 C3      -6.1267   8.7291  -5.7277   C.2       1 RES1   0.0000
    58 H3      -6.5005   9.6009  -5.6790   H         1 RES1   0.0000
    59 C4      -4.7732   8.5252  -5.4883   C.2       1 RES1   0.0000
    60 C5      -4.9830   6.2428  -5.9113   C.2       1 RES1   0.0000
    61 C6      -6.3463   6.3731  -6.1354   C.2       1 RES1   0.0000
    62 H6      -6.8759   5.6144  -6.3502   H         1 RES1   0.0000
    63 C7      -3.8145   9.5989  -5.0999   C.2       1 RES1   0.0000
    64 C8      -4.1722  10.9359  -5.0356   C.2       1 RES1   0.0000
    65 H8      -5.0582  11.2076  -5.2453   H         1 RES1   0.0000
    66 C9      -3.2235  11.8663  -4.6626   C.2       1 RES1   0.0000
    67 H9      -3.4440  12.7892  -4.6231   H         1 RES1   0.0000
    68 C10     -1.9476  11.4383  -4.3476   C.2       1 RES1   0.0000
    69 H10     -1.2816  12.0574  -4.0721   H         1 RES1   0.0000
    70 C11     -1.6637  10.0919  -4.4415   C.2       1 RES1   0.0000
    71 H11     -0.7855   9.7971  -4.2310   H         1 RES1   0.0000
    72 C12     -4.2495   4.9485  -5.9512   C.2       1 RES1   0.0000
    73 C13     -4.8657   3.7425  -6.2499   C.2       1 RES1   0.0000
    74 H13     -5.7906   3.7133  -6.4661   H         1 RES1   0.0000
    75 C14     -4.1118   2.5845  -6.2267   C.2       1 RES1   0.0000
    76 H14     -4.5150   1.7433  -6.4037   H         1 RES1   0.0000
    77 C15     -2.7592   2.6688  -5.9426   C.2       1 RES1   0.0000
    78 H15     -2.2177   1.8878  -5.9389   H         1 RES1   0.0000
    79 C16     -2.2101   3.9037  -5.6650   C.2       1 RES1   0.0000
    80 H16     -1.2803   3.9586  -5.4785   H         1 RES1   0.0000
    81 Zn1     10.9091   6.2600   4.9749   Zn        1 RES1   0.0000
    82 Zn1    -10.9091   6.9972  -4.9749   Zn        1 RES1   0.0000
    83 O1       0.4526   6.3839   5.7081   O.3       1 RES1   0.0000
    84 O1      -0.4526   6.8733  -5.7081   O.3       1 RES1   0.0000
@<TRIPOS>BOND
     1     1     4    1
     2     1     6    1
     3     1     7    1
     4     1     8    1
     5     1    83    1
     6     2     9    1
     7     2    81    1
     8     3     9    2
     9     4    35    1
    10     5    35    2
    11     6    13    2
    12     6    14    1
    13     7    17    2
    14     7    24    1
    15     8    26    2
    16     8    33    1
    17     9    10    1
    18    10    11    2
    19    10    15    1
    20    11    12    1
    21    11    13    1
    22    13    17    1
    23    14    15    2
    24    14    26    1
    25    15    16    1
    26    17    18    1
    27    18    19    1
    28    18    20    2
    29    20    21    1
    30    20    22    1
    31    22    23    1
    32    22    24    2
    33    24    25    1
    34    26    27    1
    35    27    28    1
    36    27    29    2
    37    29    30    1
    38    29    31    1
    39    31    32    1
    40    31    33    2
    41    33    34    1
    42    35    36    1
    43    36    37    2
    44    36    39    1
    45    37    38    1
    46    37    47    1
    47    39    40    1
    48    39    45    2
    49    41    43    1
    50    41    49    1
    51    42    43    2
    52    43    44    1
    53    44    45    1
    54    44    47    2
    55    45    46    1
    56    47    48    1
    57    49    52    1
    58    49    53    1
    59    49    54    1
    60    49    84    1
    61    50    55    1
    62    50    82    1
    63    51    55    2
    64    52    59    2
    65    52    60    1
    66    53    63    2
    67    53    70    1
    68    54    72    2
    69    54    79    1
    70    55    56    1
    71    56    57    2
    72    56    61    1
    73    57    58    1
    74    57    59    1
    75    59    63    1
    76    60    61    2
    77    60    72    1
    78    61    62    1
    79    63    64    1
    80    64    65    1
    81    64    66    2
    82    66    67    1
    83    66    68    1
    84    68    69    1
    85    68    70    2
    86    70    71    1
    87    72    73    1
    88    73    74    1
    89    73    75    2
    90    75    76    1
    91    75    77    1
    92    77    78    1
    93    77    79    2
    94    79    80    1
@<TRIPOS>SUBSTRUCTURE
     1 RES1        1 GROUP             0 ****  ****    0  
@<TRIPOS>CRYSIN
    8.6507   13.2572   14.8537   90.0000   91.1130   90.0000    14     1
