####################################################################### 
# 
# This file contains crystal structure data downloaded from the 
# Cambridge Structural Database (CSD) hosted by the Cambridge 
# Crystallographic Data Centre (CCDC).
# 
# Full information about CCDC data access policies and citation 
# guidelines are available at http://www.ccdc.cam.ac.uk/access/V1 
# 
# Audit and citation data items may have been added by the CCDC. 
# Please retain this information to preserve the provenance of 
# this file and to allow appropriate attribution of the data. 
# 
#######################################################################
@<TRIPOS>MOLECULE
XIPQOG
   155   164     5     0     0
SMALL
NO_CHARGES
****
Generated from the CSD

@<TRIPOS>ATOM
     1 Co3     -0.6869   1.6328   2.8835   Co.oh     1 RES1   0.0000
     2 Co2      4.8844   6.4547   2.8378   Co.oh     1 RES1   0.0000
     3 Co1      2.0569   4.0125   4.2785   Co.oh     1 RES1   0.0000
     4 O13      4.6297   4.6581   3.7956   O.co2     1 RES1   0.0000
     5 O2       3.0227   7.1829   2.6569   O.co2     1 RES1   0.0000
     6 O5      -3.1739   6.2291   2.7604   O.co2     1 RES1   0.0000
     7 O4      -4.0262   8.0427   1.8518   O.co2     1 RES1   0.0000
     8 O7       1.1499   0.8350   2.7013   O.co2     1 RES1   0.0000
     9 O14      9.6412   3.4943   3.7364   O.co2     1 RES1   0.0000
    10 O10      8.2220  -0.0337   2.0917   O.co2     1 RES1   0.0000
    11 O11      7.3600   1.8347   2.8163   O.co2     1 RES1   0.0000
    12 O12      3.5688   3.9471   5.5849   O.co2     1 RES1   0.0000
    13 O3       0.2637  10.6433   0.4962   O.3       1 RES1   0.0000
    14 O15     10.6900   3.9520   5.6112   O.co2     1 RES1   0.0000
    15 O9       3.9662  -2.5642   0.4831   O.3       1 RES1   0.0000
    16 O1       1.5736   5.6062   3.2928   O.co2     1 RES1   0.0000
    17 O6       2.5711   2.4633   3.2484   O.co2     1 RES1   0.0000
    18 N2       5.4980  -5.4525  -0.9842   N.2       1 RES1   0.0000
    19 N3      -1.2844  13.5049  -0.9842   N.2       1 RES1   0.0000
    20 O16      7.0252   3.9441   9.1620   O.3       1 RES1   0.0000
    21 O8      -0.7296   0.8214   4.8767   O.3       1 RES1   0.0000
    22 H8A      0.0822   0.8135   5.2141   H         1 RES1   0.0000
    23 H8B     -0.9567  -0.0282   4.8508   H         1 RES1   0.0000
    24 N1       9.4050   4.4330  11.8205   N.2       1 RES1   0.0000
    25 C26      4.6453   4.2442   4.9721   C.2       1 RES1   0.0000
    26 C36     -0.6160  12.3653  -0.7953   C.2       1 RES1   0.0000
    27 H36     -0.1390  11.9845  -1.5237   H         1 RES1   0.0000
    28 C17      5.9328   4.0789   5.7049   C.2       1 RES1   0.0000
    29 C31     -1.4091   9.0520   1.3342   C.2       1 RES1   0.0000
    30 H31     -2.1389   9.5766   1.0249   H         1 RES1   0.0000
    31 C7       3.2295  -0.6865   1.6530   C.2       1 RES1   0.0000
    32 H7       2.3432  -1.0078   1.5336   H         1 RES1   0.0000
    33 C1       4.8295  -4.3145  -0.7969   C.2       1 RES1   0.0000
    34 H1       4.3408  -3.9456  -1.5243   H         1 RES1   0.0000
    35 C27      1.8712   6.7070   2.7752   C.2       1 RES1   0.0000
    36 C15      8.3219   3.8964   5.7098   C.2       1 RES1   0.0000
    37 C30     -1.6187   7.8519   1.9586   C.2       1 RES1   0.0000
    38 C33      0.9736   8.7270   1.6201   C.2       1 RES1   0.0000
    39 H33      1.8628   9.0408   1.5005   H         1 RES1   0.0000
    40 C8       3.4480   0.5218   2.2856   C.2       1 RES1   0.0000
    41 C13      2.2889   1.3346   2.7867   C.2       1 RES1   0.0000
    42 C2       4.8223  -3.6494   0.4173   C.2       1 RES1   0.0000
    43 C5       6.2009  -5.9511   0.0493   C.2       1 RES1   0.0000
    44 H5       6.6729  -6.7668  -0.0682   H         1 RES1   0.0000
    45 C35     -0.5957  11.7218   0.4289   C.2       1 RES1   0.0000
    46 C16      7.1337   4.0048   4.9934   C.2       1 RES1   0.0000
    47 H16      7.1384   4.0264   4.0445   H         1 RES1   0.0000
    48 C34     -3.0304   7.3448   2.1870   C.2       1 RES1   0.0000
    49 C29     -0.5822   7.0669   2.4170   C.2       1 RES1   0.0000
    50 H29     -0.7554   6.2347   2.8435   H         1 RES1   0.0000
    51 C28      0.7365   7.5225   2.2428   C.2       1 RES1   0.0000
    52 C12      7.2256   0.6981   2.3135   C.2       1 RES1   0.0000
    53 C4       6.2605  -5.3148   1.2833   C.2       1 RES1   0.0000
    54 H4       6.7861  -5.6791   1.9853   H         1 RES1   0.0000
    55 C6       4.3051  -1.4313   1.1896   C.2       1 RES1   0.0000
    56 C39     -1.9647  14.0109   0.0493   C.2       1 RES1   0.0000
    57 H39     -2.4391  14.8243  -0.0769   H         1 RES1   0.0000
    58 C10      5.8278   0.1979   2.0358   C.2       1 RES1   0.0000
    59 C3       5.5491  -4.1490   1.4755   C.2       1 RES1   0.0000
    60 H3       5.5590  -3.7044   2.3154   H         1 RES1   0.0000
    61 C18      5.9258   4.0132   7.0900   C.2       1 RES1   0.0000
    62 H18      5.1038   4.0227   7.5680   H         1 RES1   0.0000
    63 C9       4.7585   0.9830   2.4778   C.2       1 RES1   0.0000
    64 H9       4.9170   1.8168   2.9041   H         1 RES1   0.0000
    65 C11      5.6187  -0.9901   1.3786   C.2       1 RES1   0.0000
    66 H11      6.3518  -1.5026   1.0587   H         1 RES1   0.0000
    67 C14      9.6303   3.7780   4.9753   C.2       1 RES1   0.0000
    68 C32     -0.1061   9.4788   1.1666   C.2       1 RES1   0.0000
    69 C38     -2.0101  13.4084   1.2898   C.2       1 RES1   0.0000
    70 H38     -2.5160  13.7918   1.9961   H         1 RES1   0.0000
    71 C19      7.1280   3.9331   7.7686   C.2       1 RES1   0.0000
    72 C20      8.3229   3.8800   7.0900   C.2       1 RES1   0.0000
    73 H20      9.1423   3.8318   7.5679   H         1 RES1   0.0000
    74 C37     -1.2934  12.2207   1.4854   C.2       1 RES1   0.0000
    75 H37     -1.2956  11.7779   2.3254   H         1 RES1   0.0000
    76 C23      8.3730   4.5647  10.9727   C.2       1 RES1   0.0000
    77 H23      7.7923   5.3104  11.0741   H         1 RES1   0.0000
    78 C21      8.1229   3.6701   9.9671   C.2       1 RES1   0.0000
    79 C25     10.1746   3.3301  11.6612   C.2       1 RES1   0.0000
    80 H25     10.9054   3.1959  12.2536   H         1 RES1   0.0000
    81 C22      8.8951   2.5566   9.7913   C.2       1 RES1   0.0000
    82 H22      8.7217   1.9305   9.0984   H         1 RES1   0.0000
    83 C24      9.9443   2.3954  10.6819   C.2       1 RES1   0.0000
    84 H24     10.5084   1.6332  10.6130   H         1 RES1   0.0000
    85 Co3      9.4507   1.6328   2.8835   Co.oh     1 RES1   0.0000
    86 Co3     -1.1001  14.4151  -2.8835   Co.oh     1 RES1   0.0000
    87 Co2     -5.2532   6.4547   2.8378   Co.oh     1 RES1   0.0000
    88 Co2      5.2532  -6.4547  -2.8378   Co.oh     1 RES1   0.0000
    89 Co2      9.6498   5.6724  13.5933   Co.oh     1 RES1   0.0000
    90 Co1     12.1945   4.0125   4.2785   Co.oh     1 RES1   0.0000
    91 O5       6.9637   6.2291   2.7604   O.3       1 RES1   0.0000
    92 O4       6.1114   8.0427   1.8518   O.3       1 RES1   0.0000
    93 O14     -0.4964   3.4943   3.7364   O.3       1 RES1   0.0000
    94 O10     -1.9156  -0.0337   2.0917   O.3       1 RES1   0.0000
    95 O11     -2.7776   1.8347   2.8163   O.3       1 RES1   0.0000
    96 O15      0.5524   3.9520   5.6112   O.3       1 RES1   0.0000
    97 N2       4.6396   5.4525   0.9842   N.3       1 RES1   0.0000
    98 N3      -0.5026   2.5430   0.9842   N.3       1 RES1   0.0000
    99 N1       5.1292   7.6941   4.6106   N.3       1 RES1   0.0000
   100 O18      0.7768   1.2206   7.3398   O.3       2 RES2   0.0000
   101 O17      3.1951  -0.2563   7.3956   O.3       2 RES2   0.0000
   102 C53      2.0528   1.8419   7.5945   C.3       2 RES2   0.0000
   103 H53A     2.2076   1.8826   8.5719   H         2 RES2   0.0000
   104 H53B     2.0406   2.7693   7.2487   H         2 RES2   0.0000
   105 C52      3.1717   1.0849   6.9471   C.3       2 RES2   0.0000
   106 H52A     3.0558   1.1018   5.9635   H         2 RES2   0.0000
   107 H52B     4.0338   1.5207   7.1619   H         2 RES2   0.0000
   108 C50      0.8160  -0.1292   7.8048   C.3       2 RES2   0.0000
   109 H50A    -0.0495  -0.5695   7.6117   H         2 RES2   0.0000
   110 H50B     0.9508  -0.1356   8.7854   H         2 RES2   0.0000
   111 C51      1.9262  -0.8988   7.1426   C.3       2 RES2   0.0000
   112 H51A     1.9459  -1.8242   7.4948   H         2 RES2   0.0000
   113 H51B     1.7649  -0.9435   6.1672   H         2 RES2   0.0000
   114 O19      3.3372   5.2898   8.5327   O.3       3 RES3   0.0000
   115 C49      3.4209   6.5209   7.7785   C.3       3 RES3   0.0000
   116 H49A     4.1889   6.4756   7.1552   H         3 RES3   0.0000
   117 H49B     3.5720   7.2790   8.3971   H         3 RES3   0.0000
   118 C48      2.2240   5.3742   9.4232   C.3       3 RES3   0.0000
   119 H48A     2.3645   6.1176  10.0618   H         3 RES3   0.0000
   120 H48B     2.1465   4.5336   9.9395   H         3 RES3   0.0000
   121 O19      1.0594   6.8373   7.8984   O.3       3 RES3   0.0000
   122 C49      0.9757   5.6062   8.6526   C.3       3 RES3   0.0000
   123 H49A     0.2077   5.6515   9.2759   H         3 RES3   0.0000
   124 H49B     0.8245   4.8481   8.0340   H         3 RES3   0.0000
   125 C48      2.1726   6.7529   7.0079   C.3       3 RES3   0.0000
   126 H48A     2.0321   6.0095   6.3693   H         3 RES3   0.0000
   127 H48B     2.2501   7.5935   6.4916   H         3 RES3   0.0000
   128 O21     -0.7722  11.9804   4.9540   O.3       4 RES4   0.0000
   129 O20      1.3172  10.0897   5.2103   O.3       4 RES4   0.0000
   130 C47      0.6166  12.3322   4.8110   C.3       4 RES4   0.0000
   131 H47A     0.9719  12.6230   5.6879   H         4 RES4   0.0000
   132 H47B     0.6980  13.0916   4.1817   H         4 RES4   0.0000
   133 C46      1.4007  11.2286   4.3247   C.3       4 RES4   0.0000
   134 H46A     2.3462  11.5098   4.2416   H         4 RES4   0.0000
   135 H46B     1.0788  10.9684   3.4258   H         4 RES4   0.0000
   136 C44     -0.0635   9.7038   5.3483   C.3       4 RES4   0.0000
   137 H44A    -0.1376   8.9559   5.9921   H         4 RES4   0.0000
   138 H44B    -0.4112   9.3953   4.4742   H         4 RES4   0.0000
   139 C45     -0.8683  10.8635   5.8281   C.3       4 RES4   0.0000
   140 H45A    -1.8175  10.5902   5.9048   H         4 RES4   0.0000
   141 H45B    -0.5547  11.1262   6.7298   H         4 RES4   0.0000
   142 O23     -2.3042  -0.9859   6.1091   O.3       5 RES5   0.0000
   143 O22     -4.0895  -2.8970   5.0049   O.3       5 RES5   0.0000
   144 C40     -3.6848  -0.9526   6.4131   C.3       5 RES5   0.0000
   145 H40A    -3.9622  -0.0129   6.5600   H         5 RES5   0.0000
   146 H40B    -3.8459  -1.4521   7.2512   H         5 RES5   0.0000
   147 C41     -4.5294  -1.5541   5.3023   C.3       5 RES5   0.0000
   148 H41A    -5.4790  -1.5691   5.5788   H         5 RES5   0.0000
   149 H41B    -4.4547  -0.9934   4.4885   H         5 RES5   0.0000
   150 C42     -2.7118  -2.8878   4.6369   C.3       5 RES5   0.0000
   151 H42A    -2.5847  -2.3213   3.8350   H         5 RES5   0.0000
   152 H42B    -2.4198  -3.8078   4.4140   H         5 RES5   0.0000
   153 C43     -1.8759  -2.3494   5.7837   C.3       5 RES5   0.0000
   154 H43A    -1.9828  -2.9310   6.5771   H         5 RES5   0.0000
   155 H43B    -0.9198  -2.3468   5.5277   H         5 RES5   0.0000
@<TRIPOS>BOND
     1     1     8    1
     2     1    21    1
     3     1    93    1
     4     1    94    1
     5     1    95    1
     6     1    98    1
     7     2     4    1
     8     2     5    1
     9     2    91    1
    10     2    92    1
    11     2    97    1
    12     2    99    1
    13     3    12    1
    14     3    16    1
    15     3    17    1
    16     3    96    1
    17     4    25   un
    18     5    35   un
    19     6    48   un
    20     6    87    1
    21     7    48   un
    22     7    87    1
    23     8    41   un
    24     9    67   un
    25     9    85    1
    26    10    52   un
    27    10    85    1
    28    11    52   un
    29    11    85    1
    30    12    25   un
    31    13    45    1
    32    13    68    1
    33    14    67   un
    34    14    90    1
    35    15    42    1
    36    15    55    1
    37    16    35   un
    38    17    41   un
    39    18    33    2
    40    18    43    1
    41    18    88    1
    42    19    26    2
    43    19    56    1
    44    19    86    1
    45    20    71    1
    46    20    78    1
    47    21    22    1
    48    21    23    1
    49    24    76    2
    50    24    79    1
    51    24    89    1
    52    25    28    1
    53    26    27    1
    54    26    45    1
    55    28    46    1
    56    28    61    2
    57    29    30    1
    58    29    37    1
    59    29    68    2
    60    31    32    1
    61    31    40    1
    62    31    55    2
    63    33    34    1
    64    33    42    1
    65    35    51    1
    66    36    46    2
    67    36    67    1
    68    36    72    1
    69    37    48    1
    70    37    49    2
    71    38    39    1
    72    38    51    2
    73    38    68    1
    74    40    41    1
    75    40    63    2
    76    42    59    2
    77    43    44    1
    78    43    53    2
    79    45    74    2
    80    46    47    1
    81    49    50    1
    82    49    51    1
    83    52    58    1
    84    53    54    1
    85    53    59    1
    86    55    65    1
    87    56    57    1
    88    56    69    2
    89    58    63    1
    90    58    65    2
    91    59    60    1
    92    61    62    1
    93    61    71    1
    94    63    64    1
    95    65    66    1
    96    69    70    1
    97    69    74    1
    98    71    72    2
    99    72    73    1
   100    74    75    1
   101    76    77    1
   102    76    78    1
   103    78    81    2
   104    79    80    1
   105    79    83    2
   106    81    82    1
   107    81    83    1
   108    83    84    1
   109   100   102    1
   110   100   108    1
   111   101   105    1
   112   101   111    1
   113   102   103    1
   114   102   104    1
   115   102   105    1
   116   105   106    1
   117   105   107    1
   118   108   109    1
   119   108   110    1
   120   108   111    1
   121   111   112    1
   122   111   113    1
   123   114   115    1
   124   114   118    1
   125   115   116    1
   126   115   117    1
   127   115   125    1
   128   118   119    1
   129   118   120    1
   130   118   122    1
   131   121   122    1
   132   121   125    1
   133   122   123    1
   134   122   124    1
   135   125   126    1
   136   125   127    1
   137   128   130    1
   138   128   139    1
   139   129   133    1
   140   129   136    1
   141   130   131    1
   142   130   132    1
   143   130   133    1
   144   133   134    1
   145   133   135    1
   146   136   137    1
   147   136   138    1
   148   136   139    1
   149   139   140    1
   150   139   141    1
   151   142   144    1
   152   142   153    1
   153   143   147    1
   154   143   150    1
   155   144   145    1
   156   144   146    1
   157   144   147    1
   158   147   148    1
   159   147   149    1
   160   150   151    1
   161   150   152    1
   162   150   153    1
   163   153   154    1
   164   153   155    1
@<TRIPOS>SUBSTRUCTURE
     1 RES1        1 GROUP             0 ****  ****    0  
     2 RES2      100 GROUP             0 ****  ****    0  
     3 RES3      114 GROUP             0 ****  ****    0  
     4 RES4      128 GROUP             0 ****  ****    0  
     5 RES5      142 GROUP             0 ****  ****    0  
@<TRIPOS>CRYSIN
   10.1376   16.1471   17.3490  101.5010  103.1740   96.3540     2     1
