####################################################################### 
# 
# This file contains crystal structure data downloaded from the 
# Cambridge Structural Database (CSD) hosted by the Cambridge 
# Crystallographic Data Centre (CCDC).
# 
# Full information about CCDC data access policies and citation 
# guidelines are available at http://www.ccdc.cam.ac.uk/access/V1 
# 
# Audit and citation data items may have been added by the CCDC. 
# Please retain this information to preserve the provenance of 
# this file and to allow appropriate attribution of the data. 
# 
#######################################################################
@<TRIPOS>MOLECULE
VUBNUE
    54    58     2     0     0
SMALL
USER_CHARGES
****
Generated from the CSD

@<TRIPOS>ATOM
     1 In1     -3.6676  11.7949   4.3504   In        1 RES1   0.0000
     2 N1      -1.7940  12.3327   5.5196   N.2       1 RES1   0.0000
     3 C3      -2.0054  12.9411   6.6875   C.2       1 RES1   0.0000
     4 C4      -0.5375  11.9856   5.1970   C.2       1 RES1   0.0000
     5 H4      -0.3858  11.5764   4.3761   H         1 RES1   0.0000
     6 C6      -0.9996  13.1997   7.5833   C.2       1 RES1   0.0000
     7 H6      -1.1743  13.6156   8.3967   H         1 RES1   0.0000
     8 C7       0.3065  12.8131   7.2267   C.2       1 RES1   0.0000
     9 H7       1.0145  12.9684   7.8095   H         1 RES1   0.0000
    10 C2       0.5304  12.2102   6.0271   C.2       1 RES1   0.0000
    11 C5      -3.4560  13.3058   6.9647   C.2       1 RES1   0.0000
    12 O1      -4.2874  13.0445   6.0600   O.co2     1 RES1  -1.0000
    13 O2      -3.7130  13.8271   8.0495   O.co2     1 RES1   0.0000
    14 C8       1.9103  11.7910   5.6402   C.2       1 RES1   0.0000
    15 O3       2.0683  11.3404   4.4724   O.co2     1 RES1   0.0000
    16 O4       2.8431  11.8958   6.4108   O.co2     1 RES1   0.0000
    17 N1      -1.9252   5.8907   5.5196   N.2       1 RES1   0.0000
    18 C3      -2.3464   5.4035   6.6875   C.2       1 RES1   0.0000
    19 C4      -2.2529   7.1524   5.1970   C.2       1 RES1   0.0000
    20 H4      -1.9744   7.4884   4.3761   H         1 RES1   0.0000
    21 C6      -3.0733   6.1452   7.5833   C.2       1 RES1   0.0000
    22 H6      -3.3461   5.7859   8.3967   H         1 RES1   0.0000
    23 C7      -3.3916   7.4696   7.2267   C.2       1 RES1   0.0000
    24 H7      -3.8800   8.0051   7.8095   H         1 RES1   0.0000
    25 C2      -2.9814   7.9650   6.0271   C.2       1 RES1   0.0000
    26 C5      -1.9370   3.9648   6.9647   C.2       1 RES1   0.0000
    27 O1      -1.2950   3.3755   6.0600   O.co2     1 RES1   0.0000
    28 O2      -2.2600   3.4816   8.0495   O.co2     1 RES1   0.0000
    29 C8      -3.3083   9.3696   5.6402   C.2       1 RES1   0.0000
    30 O3      -2.9971   9.7317   4.4724   O.co2     1 RES1   0.0000
    31 O4      -3.8654  10.1250   6.4108   O.co2     1 RES1   0.0000
    32 In1     -0.5227   4.5370   4.3504   In        1 RES1   0.0000
    33 In1      4.1904  10.8895   4.3504   In        1 RES1   0.0000
    34 N1      -4.1389  13.6865   3.1812   N.3       1 RES1   0.0000
    35 O1      -2.2757  11.8831   2.6409   O.3       1 RES1   0.0000
    36 O3      -5.7899  11.3441   4.2284   O.3       1 RES1   0.0000
    37 O4      -5.0151  10.7888   2.2901   O.3       1 RES1   0.0000
    38 C102     0.0000   9.0738   2.4014   C.3       2 RES2   0.0000
    39 H10A    -0.3574   8.2423   2.7206   H         2 RES2   0.0000
    40 N2       0.0000   9.0738   0.9240   N.4       2 RES2   1.0000
    41 C101     0.6444  10.5619   0.4333   C.3       2 RES2   0.0000
    42 H10D     0.6598  10.6090  -0.5231   H         2 RES2   0.0000
    43 H10E     0.0933  11.2761   0.7775   H         2 RES2   0.0000
    44 H10F     1.5336  10.6571   0.7775   H         2 RES2   0.0000
    45 H10A     0.8988   9.1801   2.7206   H         2 RES2   0.0000
    46 C101    -1.6109   8.8878   0.4333   C.3       2 RES2   0.0000
    47 H10D    -1.6594   8.8776  -0.5231   H         2 RES2   0.0000
    48 H10E    -1.9538   8.0535   0.7775   H         2 RES2   0.0000
    49 H10F    -2.1379   9.6103   0.7775   H         2 RES2   0.0000
    50 H10A    -0.5415   9.7991   2.7206   H         2 RES2   0.0000
    51 C101     0.9666   7.7717   0.4333   C.3       2 RES2   0.0000
    52 H10D     0.9996   7.7349  -0.5231   H         2 RES2   0.0000
    53 H10E     1.8606   7.8919   0.7775   H         2 RES2   0.0000
    54 H10F     0.6044   6.9541   0.7775   H         2 RES2   0.0000
@<TRIPOS>BOND
     1     1     2    1
     2     1    12    1
     3     1    30    1
     4     1    31    1
     5     1    34    1
     6     1    35    1
     7     1    36    1
     8     1    37    1
     9     2     3    1
    10     2     4    2
    11     3     6    2
    12     3    11    1
    13     4     5    1
    14     4    10    1
    15     6     7    1
    16     6     8    1
    17     8     9    1
    18     8    10    2
    19    10    14    1
    20    11    12    1
    21    11    13    2
    22    14    15   un
    23    14    16   un
    24    15    33    1
    25    16    33    1
    26    17    18    1
    27    17    19    2
    28    17    32    1
    29    18    21    2
    30    18    26    1
    31    19    20    1
    32    19    25    1
    33    21    22    1
    34    21    23    1
    35    23    24    1
    36    23    25    2
    37    25    29    1
    38    26    27    1
    39    26    28    2
    40    27    32    1
    41    29    30   un
    42    29    31   un
    43    38    39    1
    44    38    40    1
    45    38    45    1
    46    38    50    1
    47    40    41    1
    48    40    46    1
    49    40    51    1
    50    41    42    1
    51    41    43    1
    52    41    44    1
    53    46    47    1
    54    46    48    1
    55    46    49    1
    56    51    52    1
    57    51    53    1
    58    51    54    1
@<TRIPOS>SUBSTRUCTURE
     1 RES1        1 GROUP             0 ****  ****    0  
     2 RES2       38 GROUP             0 ****  ****    0  
@<TRIPOS>CRYSIN
   15.7163   15.7163   52.2050   90.0000   90.0000  120.0000   238     1
