####################################################################### 
# 
# This file contains crystal structure data downloaded from the 
# Cambridge Structural Database (CSD) hosted by the Cambridge 
# Crystallographic Data Centre (CCDC).
# 
# Full information about CCDC data access policies and citation 
# guidelines are available at http://www.ccdc.cam.ac.uk/access/V1 
# 
# Audit and citation data items may have been added by the CCDC. 
# Please retain this information to preserve the provenance of 
# this file and to allow appropriate attribution of the data. 
# 
#######################################################################
@<TRIPOS>MOLECULE
LUBHAU
    74    86     1     0     0
SMALL
NO_CHARGES
****
Generated from the CSD

@<TRIPOS>ATOM
     1 In1      4.9898   4.9898  25.6140   In        1 RES1   0.0000
     2 O1       6.7910   1.4879  20.0404   O.2       1 RES1   0.0000
     3 O2       4.9898   2.5767  25.8626   O.co2     1 RES1   0.0000
     4 O3       4.9898   3.5587  23.9662   O.co2     1 RES1   0.0000
     5 N1       4.9898   0.0000  20.4366   N.2       1 RES1   0.0000
     6 C1       6.1374   0.8882  17.0760   C.3       1 RES1   0.0000
     7 H1       7.1353   0.8183  17.0760   H         1 RES1   0.0000
     8 C2       5.5127   0.4181  18.2508   C.2       1 RES1   0.0000
     9 C3       5.9348   0.7215  19.7296   C.2       1 RES1   0.0000
    10 C4       4.9898   0.0000  21.8641   C.2       1 RES1   0.0000
    11 C5       4.9898   1.1876  22.5417   C.2       1 RES1   0.0000
    12 H5       4.9898   1.9909  22.0724   H         1 RES1   0.0000
    13 C6       4.9898   1.1965  23.9508   C.2       1 RES1   0.0000
    14 C7       4.9898   0.0000  24.6407   C.2       1 RES1   0.0000
    15 H7       4.9898   0.0000  25.5696   H         1 RES1   0.0000
    16 C8       4.9898   2.5228  24.6847   C.2       1 RES1   0.0000
    17 O1       3.1885  -1.4879  20.0404   O.2       1 RES1   0.0000
    18 O2       4.9898  -2.5767  25.8626   O.co2     1 RES1   0.0000
    19 O3       4.9898  -3.5587  23.9662   O.co2     1 RES1   0.0000
    20 C1       3.8421  -0.8882  17.0760   C.3       1 RES1   0.0000
    21 H1       2.8442  -0.8183  17.0760   H         1 RES1   0.0000
    22 C2       4.4668  -0.4181  18.2508   C.2       1 RES1   0.0000
    23 C3       4.0447  -0.7215  19.7296   C.2       1 RES1   0.0000
    24 C5       4.9898  -1.1876  22.5417   C.2       1 RES1   0.0000
    25 H5       4.9898  -1.9909  22.0724   H         1 RES1   0.0000
    26 C6       4.9898  -1.1965  23.9508   C.2       1 RES1   0.0000
    27 C8       4.9898  -2.5228  24.6847   C.2       1 RES1   0.0000
    28 O1       3.1885   1.4879  14.1116   O.2       1 RES1   0.0000
    29 O2       4.9898   2.5767   8.2894   O.co2     1 RES1   0.0000
    30 O3       4.9898   3.5587  10.1858   O.co2     1 RES1   0.0000
    31 N1       4.9898   0.0000  13.7154   N.2       1 RES1   0.0000
    32 C1       3.8421   0.8882  17.0760   C.3       1 RES1   0.0000
    33 H1       2.8442   0.8183  17.0760   H         1 RES1   0.0000
    34 C2       4.4668   0.4181  15.9012   C.2       1 RES1   0.0000
    35 C3       4.0447   0.7215  14.4224   C.2       1 RES1   0.0000
    36 C4       4.9898   0.0000  12.2879   C.2       1 RES1   0.0000
    37 C5       4.9898   1.1876  11.6103   C.2       1 RES1   0.0000
    38 H5       4.9898   1.9909  12.0796   H         1 RES1   0.0000
    39 C6       4.9898   1.1965  10.2012   C.2       1 RES1   0.0000
    40 C7       4.9898   0.0000   9.5113   C.2       1 RES1   0.0000
    41 H7       4.9898   0.0000   8.5824   H         1 RES1   0.0000
    42 C8       4.9898   2.5228   9.4673   C.2       1 RES1   0.0000
    43 O1       6.7910  -1.4879  14.1116   O.2       1 RES1   0.0000
    44 O2       4.9898  -2.5767   8.2894   O.co2     1 RES1   0.0000
    45 O3       4.9898  -3.5587  10.1858   O.co2     1 RES1   0.0000
    46 C1       6.1374  -0.8882  17.0760   C.3       1 RES1   0.0000
    47 H1       7.1353  -0.8183  17.0760   H         1 RES1   0.0000
    48 C2       5.5127  -0.4181  15.9012   C.2       1 RES1   0.0000
    49 C3       5.9348  -0.7215  14.4224   C.2       1 RES1   0.0000
    50 C5       4.9898  -1.1876  11.6103   C.2       1 RES1   0.0000
    51 H5       4.9898  -1.9909  12.0796   H         1 RES1   0.0000
    52 C6       4.9898  -1.1965  10.2012   C.2       1 RES1   0.0000
    53 C8       4.9898  -2.5228   9.4673   C.2       1 RES1   0.0000
    54 O1       3.1885  -1.4879  14.1116   O.2       1 RES1   0.0000
    55 C2       4.4668  -0.4181  15.9012   C.2       1 RES1   0.0000
    56 C3       4.0447  -0.7215  14.4224   C.2       1 RES1   0.0000
    57 O1       6.7910   1.4879  14.1116   O.2       1 RES1   0.0000
    58 C2       5.5127   0.4181  15.9012   C.2       1 RES1   0.0000
    59 C3       5.9348   0.7215  14.4224   C.2       1 RES1   0.0000
    60 O1       6.7910  -1.4879  20.0404   O.2       1 RES1   0.0000
    61 C2       5.5127  -0.4181  18.2508   C.2       1 RES1   0.0000
    62 C3       5.9348  -0.7215  19.7296   C.2       1 RES1   0.0000
    63 O1       3.1885   1.4879  20.0404   O.2       1 RES1   0.0000
    64 C2       4.4668   0.4181  18.2508   C.2       1 RES1   0.0000
    65 C3       4.0447   0.7215  19.7296   C.2       1 RES1   0.0000
    66 In1      4.9898  -4.9897  25.6140   In        1 RES1   0.0000
    67 In1      4.9898  -4.9897   8.5380   In        1 RES1   0.0000
    68 In1      4.9898   4.9898   8.5380   In        1 RES1   0.0000
    69 O2       4.9898   7.4028  25.8626   O.3       1 RES1   0.0000
    70 O2       2.5767   4.9898  25.3654   O.3       1 RES1   0.0000
    71 O2       7.4028   4.9898  25.3654   O.3       1 RES1   0.0000
    72 O3       4.9898   6.4208  23.9662   O.3       1 RES1   0.0000
    73 O3       3.5587   4.9898  27.2618   O.3       1 RES1   0.0000
    74 O3       6.4208   4.9898  27.2618   O.3       1 RES1   0.0000
@<TRIPOS>BOND
     1     1     3    1
     2     1     4    1
     3     1    69    1
     4     1    70    1
     5     1    71    1
     6     1    72    1
     7     1    73    1
     8     1    74    1
     9     2     9    2
    10     3    16   un
    11     4    16   un
    12     5     9    1
    13     5    10    1
    14     5    23    1
    15     5    62    1
    16     5    65    1
    17     6     7    1
    18     6     8    1
    19     6    58    1
    20     8     9    1
    21     8    22    2
    22    10    11    2
    23    10    24    1
    24    11    12    1
    25    11    13    1
    26    13    14    2
    27    13    16    1
    28    14    15    1
    29    14    26    1
    30    17    23    2
    31    18    27   un
    32    18    66    1
    33    19    27   un
    34    19    66    1
    35    20    21    1
    36    20    22    1
    37    20    55    1
    38    22    23    1
    39    24    25    1
    40    24    26    2
    41    26    27    1
    42    28    35    2
    43    29    42   un
    44    29    68    1
    45    30    42   un
    46    30    68    1
    47    31    35    1
    48    31    36    1
    49    31    49    1
    50    31    56    1
    51    31    59    1
    52    32    33    1
    53    32    34    1
    54    32    64    1
    55    34    35    1
    56    34    48    2
    57    36    37    2
    58    36    50    1
    59    37    38    1
    60    37    39    1
    61    39    40    2
    62    39    42    1
    63    40    41    1
    64    40    52    1
    65    43    49    2
    66    44    53   un
    67    44    67    1
    68    45    53   un
    69    45    67    1
    70    46    47    1
    71    46    48    1
    72    46    61    1
    73    48    49    1
    74    50    51    1
    75    50    52    2
    76    52    53    1
    77    54    56    2
    78    55    56    1
    79    55    58    2
    80    57    59    2
    81    58    59    1
    82    60    62    2
    83    61    62    1
    84    61    64    2
    85    63    65    2
    86    64    65    1
@<TRIPOS>SUBSTRUCTURE
     1 RES1        1 GROUP             0 ****  ****    0  
@<TRIPOS>CRYSIN
    9.9795    9.9795   34.1520   90.0000   90.0000   90.0000   131     1
