####################################################################### 
# 
# This file contains crystal structure data downloaded from the 
# Cambridge Structural Database (CSD) hosted by the Cambridge 
# Crystallographic Data Centre (CCDC).
# 
# Full information about CCDC data access policies and citation 
# guidelines are available at http://www.ccdc.cam.ac.uk/access/V1 
# 
# Audit and citation data items may have been added by the CCDC. 
# Please retain this information to preserve the provenance of 
# this file and to allow appropriate attribution of the data. 
# 
#######################################################################
@<TRIPOS>MOLECULE
BUNMUV
   224   252     3     0     0
SMALL
NO_CHARGES
****
Generated from the CSD

@<TRIPOS>ATOM
     1 Zn01     9.9672  13.5762   4.9972   Zn        1 RES1   0.0000
     2 Zn02    -4.0234  13.9471  30.9079   Zn        1 RES1   0.0000
     3 Zn03     2.4358  16.0665  18.0499   Zn        1 RES1   0.0000
     4 Zn04     2.4144  12.6602  17.5862   Zn        1 RES1   0.0000
     5 O23     11.8462  10.6820   5.2086   O.co2     1 RES1   0.0000
     6 O22     11.6456  12.8733   5.6140   O.co2     1 RES1   0.0000
     7 O18      2.7509  13.3666  15.7928   O.co2     1 RES1   0.0000
     8 O7      -3.7822  14.7314  29.1267   O.co2     1 RES1   0.0000
     9 O26     23.2824  10.6814   6.0931   O.co2     1 RES1   0.0000
    10 O11      1.9226  16.5138  20.5252   O.co2     1 RES1   0.0000
    11 O8      -4.5026  16.7974  29.6086   O.co2     1 RES1   0.0000
    12 O17      2.2344  15.5155  16.1532   O.co2     1 RES1   0.0000
    13 O21      9.4163  14.0473   7.5626   O.co2     1 RES1   0.0000
    14 O20      8.1512  13.7149   5.7546   O.co2     1 RES1   0.0000
    15 O16     15.6767  13.0350  19.2993   O.co2     1 RES1   0.0000
    16 O13      4.2044  13.1201  18.3632   O.co2     1 RES1   0.0000
    17 O9      -4.9268  17.7919  22.6753   O.2       1 RES1   0.0000
    18 O10      0.6185  16.0404  18.7861   O.co2     1 RES1   0.0000
    19 N6      -3.6987  11.9741  30.7519   N.2       1 RES1   0.0000
    20 O12      4.1313  15.3366  18.7148   O.co2     1 RES1   0.0000
    21 N7       2.7708  10.6704  17.3976   N.2       1 RES1   0.0000
    22 O15     14.5219  12.8926  17.4434   O.co2     1 RES1   0.0000
    23 O25     22.1116  10.4304   4.2573   O.co2     1 RES1   0.0000
    24 O14      9.7492  14.2326  22.8111   O.2       1 RES1   0.0000
    25 N8       2.6631   8.5502  16.9614   N.pl3     1 RES1   0.0000
    26 N2      -3.8667   4.9916  30.5154   N.pl3     1 RES1   0.0000
    27 N1      -3.8729   2.8977  31.1536   N.2       1 RES1   0.0000
    28 N12      2.6381   1.5979  17.7800   N.2       1 RES1   0.0000
    29 N11      2.5749   3.7160  17.1966   N.pl3     1 RES1   0.0000
    30 N4      -4.9855   8.5544  28.7766   N.2       1 RES1   0.0000
    31 N5      -3.7454   9.8276  30.3038   N.pl3     1 RES1   0.0000
    32 C69      8.3187  14.0340   6.9961   C.2       1 RES1   0.0000
    33 C24     -0.4371  16.6408  20.8414   C.2       1 RES1   0.0000
    34 C10     -2.6141  11.3521  31.3835   C.2       1 RES1   0.0000
    35 H10     -1.9750  11.7855  31.9009   H         1 RES1   0.0000
    36 C3      -4.5616   3.8206  30.5384   C.2       1 RES1   0.0000
    37 C27      0.7907  16.3898  20.0104   C.2       1 RES1   0.0000
    38 C66      7.0622  14.3936   7.7490   C.2       1 RES1   0.0000
    39 C13     -4.1312  15.9060  28.8179   C.2       1 RES1   0.0000
    40 N3      -5.0696   6.1838  28.8984   N.2       1 RES1   0.0000
    41 C30      6.6515  12.9334  19.6235   C.2       1 RES1   0.0000
    42 H30      6.2825  12.1661  19.2505   H         1 RES1   0.0000
    43 C7      -3.7625   7.4164  30.4865   C.2       1 RES1   0.0000
    44 H7      -3.2047   7.4436  31.2301   H         1 RES1   0.0000
    45 C43      3.8298  10.0552  18.0425   C.2       1 RES1   0.0000
    46 H43      4.4723  10.4803  18.5646   H         1 RES1   0.0000
    47 C78     18.5613  11.3560   7.6667   C.2       1 RES1   0.0000
    48 C4      -5.9665   3.6422  30.0099   C.3       1 RES1   0.0000
    49 H4A     -6.5104   4.3833  30.2877   H         1 RES1   0.0000
    50 H4B     -6.3376   2.8265  30.3528   H         1 RES1   0.0000
    51 H4C     -5.9452   3.6049  29.0498   H         1 RES1   0.0000
    52 C17     -3.9825  16.9298  24.6535   C.2       1 RES1   0.0000
    53 C18     -3.3069  15.7840  25.1310   C.2       1 RES1   0.0000
    54 H18     -2.8065  15.2575  24.5497   H         1 RES1   0.0000
    55 C28      4.6636  14.2353  18.8131   C.2       1 RES1   0.0000
    56 C70     12.2458  11.7348   5.6810   C.2       1 RES1   0.0000
    57 C9      -2.6402  10.0352  31.1301   C.2       1 RES1   0.0000
    58 H9      -2.0425   9.3934  31.4386   H         1 RES1   0.0000
    59 C23     -1.6979  16.6339  20.2503   C.2       1 RES1   0.0000
    60 H23     -1.7859  16.4950  19.3350   H         1 RES1   0.0000
    61 C44      3.7708   8.7378  17.7856   C.2       1 RES1   0.0000
    62 H44      4.3525   8.0815  18.0947   H         1 RES1   0.0000
    63 O24     17.3715  12.1191   9.5750   O.2       1 RES1   0.0000
    64 C74     16.0337  11.7381   7.7011   C.2       1 RES1   0.0000
    65 C14     -4.0987  16.2561  27.3455   C.2       1 RES1   0.0000
    66 C29      5.9750  14.1350  19.5387   C.2       1 RES1   0.0000
    67 C72     14.3220  10.5717   6.4988   C.2       1 RES1   0.0000
    68 H72     13.9895   9.7777   6.1456   H         1 RES1   0.0000
    69 C32      8.3963  13.9943  20.8920   C.2       1 RES1   0.0000
    70 C75     15.2925  12.9219   7.6296   C.2       1 RES1   0.0000
    71 H75     15.6080  13.6968   8.0354   H         1 RES1   0.0000
    72 C53      1.9202   2.5035  17.1127   C.2       1 RES1   0.0000
    73 C76     14.0786  12.9310   6.9437   C.2       1 RES1   0.0000
    74 H76     13.6007  13.7249   6.8606   H         1 RES1   0.0000
    75 C25     -0.3079  16.8447  22.2076   C.2       1 RES1   0.0000
    76 H25      0.5372  16.8528  22.5971   H         1 RES1   0.0000
    77 C11     -4.3565  11.0541  30.0946   C.2       1 RES1   0.0000
    78 C22     -2.8150  16.8358  21.0366   C.2       1 RES1   0.0000
    79 H22     -3.6575  16.8461  20.6423   H         1 RES1   0.0000
    80 C1      -2.6577   4.7727  31.1910   C.2       1 RES1   0.0000
    81 H1      -1.9832   5.3923  31.3517   H         1 RES1   0.0000
    82 C55      2.5733  14.5460  15.4133   C.2       1 RES1   0.0000
    83 C71     13.5763  11.7604   6.3807   C.2       1 RES1   0.0000
    84 C36     10.9234  13.5835  20.8628   C.2       1 RES1   0.0000
    85 C2      -2.6754   3.4773  31.5617   C.2       1 RES1   0.0000
    86 H2      -1.9945   3.0378  32.0170   H         1 RES1   0.0000
    87 C6      -4.2392   6.2265  29.9606   C.2       1 RES1   0.0000
    88 C39     13.2924  13.2011  19.4646   C.2       1 RES1   0.0000
    89 C47      2.1815   7.2825  16.5462   C.2       1 RES1   0.0000
    90 C8      -4.1730   8.5566  29.8311   C.2       1 RES1   0.0000
    91 C20     -3.9441  17.2767  23.2049   C.2       1 RES1   0.0000
    92 C84     22.1819  10.6755   5.4977   C.2       1 RES1   0.0000
    93 C82     20.9366  11.0191   7.6508   C.2       1 RES1   0.0000
    94 H82     21.7418  10.9414   8.1119   H         1 RES1   0.0000
    95 C45      2.0675   9.7646  16.7475   C.2       1 RES1   0.0000
    96 C67      7.1241  14.6924   9.1020   C.2       1 RES1   0.0000
    97 H67      7.9425  14.6865   9.5428   H         1 RES1   0.0000
    98 N9       1.2168   7.2959  15.6246   N.2       1 RES1   0.0000
    99 C81     20.9190  10.9007   6.2631   C.2       1 RES1   0.0000
   100 C26     -1.4325  17.0365  22.9920   C.2       1 RES1   0.0000
   101 H26     -1.3438  17.1718  23.9083   H         1 RES1   0.0000
   102 C65      5.8496  14.4714   7.0734   C.2       1 RES1   0.0000
   103 H65      5.8099  14.2968   6.1620   H         1 RES1   0.0000
   104 C40     13.3286  13.2305  20.8602   C.2       1 RES1   0.0000
   105 H40     14.1339  13.1338  21.3143   H         1 RES1   0.0000
   106 C15     -4.7526  17.4078  26.8863   C.2       1 RES1   0.0000
   107 H15     -5.2134  17.9564  27.4794   H         1 RES1   0.0000
   108 C79     18.5368  11.2557   6.2684   C.2       1 RES1   0.0000
   109 H79     17.7337  11.3462   5.8062   H         1 RES1   0.0000
   110 C31      7.8814  12.8699  20.2617   C.2       1 RES1   0.0000
   111 H31      8.3595  12.0723  20.2700   H         1 RES1   0.0000
   112 C35      9.6956  13.9420  21.6202   C.2       1 RES1   0.0000
   113 C34      6.5129  15.2804  20.1319   C.2       1 RES1   0.0000
   114 H34      6.0750  16.0963  20.0464   H         1 RES1   0.0000
   115 C19     -3.3943  15.4561  26.4594   C.2       1 RES1   0.0000
   116 H19     -2.9765  14.6864  26.7705   H         1 RES1   0.0000
   117 C49      2.1353   4.9536  16.6733   C.2       1 RES1   0.0000
   118 C54      0.6729   2.2107  16.4482   C.3       1 RES1   0.0000
   119 H54A     0.7706   2.3593  15.5039   H         1 RES1   0.0000
   120 H54B    -0.0159   2.7855  16.7914   H         1 RES1   0.0000
   121 H54C     0.4326   1.2950  16.6043   H         1 RES1   0.0000
   122 C38     12.0991  13.3304  18.7813   C.2       1 RES1   0.0000
   123 H38     12.0896  13.2768  17.8527   H         1 RES1   0.0000
   124 C73     15.5229  10.5818   7.1238   C.2       1 RES1   0.0000
   125 H73     16.0177   9.7957   7.1670   H         1 RES1   0.0000
   126 C42     14.5561  13.0336  18.6780   C.2       1 RES1   0.0000
   127 C52      3.7256   2.2328  18.3126   C.2       1 RES1   0.0000
   128 H52      4.3741   1.8232  18.8381   H         1 RES1   0.0000
   129 C21     -2.6990  17.0261  22.4105   C.2       1 RES1   0.0000
   130 N10      1.1637   4.8911  15.7597   N.2       1 RES1   0.0000
   131 C48      2.7085   6.1271  17.1060   C.2       1 RES1   0.0000
   132 H48      3.3998   6.1431  17.7281   H         1 RES1   0.0000
   133 C56      2.8062  14.8035  13.9589   C.2       1 RES1   0.0000
   134 C37     10.9128  13.5405  19.4752   C.2       1 RES1   0.0000
   135 H37     10.1151  13.6532  19.0116   H         1 RES1   0.0000
   136 O19      2.6310  16.1200   9.1769   O.2       1 RES1   0.0000
   137 C33      7.6870  15.2013  20.8337   C.2       1 RES1   0.0000
   138 H33      8.0129  15.9518  21.2770   H         1 RES1   0.0000
   139 C83     19.7593  11.2504   8.3552   C.2       1 RES1   0.0000
   140 H83     19.7755  11.3351   9.2802   H         1 RES1   0.0000
   141 C16     -4.7043  17.7185  25.5296   C.2       1 RES1   0.0000
   142 H16     -5.1610  18.4625  25.2105   H         1 RES1   0.0000
   143 C68      5.9651  14.9989   9.7932   C.2       1 RES1   0.0000
   144 H68      6.0022  15.1570  10.7076   H         1 RES1   0.0000
   145 C57      2.3741  15.9935  13.3657   C.2       1 RES1   0.0000
   146 H57      1.9271  16.6316  13.8738   H         1 RES1   0.0000
   147 C80     19.7028  11.0241   5.5851   C.2       1 RES1   0.0000
   148 H80     19.6845  10.9493   4.6583   H         1 RES1   0.0000
   149 C41     12.1375  13.4065  21.5567   C.2       1 RES1   0.0000
   150 H41     12.1423  13.4079  22.4876   H         1 RES1   0.0000
   151 C5      -5.3970   7.3638  28.3732   C.2       1 RES1   0.0000
   152 H5      -5.9773   7.3491  27.6477   H         1 RES1   0.0000
   153 C51      3.7278   3.5398  17.9657   C.2       1 RES1   0.0000
   154 H51      4.3613   4.1825  18.1898   H         1 RES1   0.0000
   155 C60      3.7521  14.0805  11.8482   C.2       1 RES1   0.0000
   156 H60      4.2154  13.4498  11.3480   H         1 RES1   0.0000
   157 C63      4.7468  15.0721   9.1311   C.2       1 RES1   0.0000
   158 C61      3.4761  13.8663  13.1803   C.2       1 RES1   0.0000
   159 H61      3.7461  13.0679  13.5735   H         1 RES1   0.0000
   160 C77     17.3313  11.7563   8.4293   C.2       1 RES1   0.0000
   161 C12     -5.5859  11.2855  29.3107   C.3       1 RES1   0.0000
   162 H12A    -5.8993  12.1804  29.4652   H         1 RES1   0.0000
   163 H12B    -6.2604  10.6594  29.5826   H         1 RES1   0.0000
   164 H12C    -5.3967  11.1693  28.3777   H         1 RES1   0.0000
   165 C64      4.6984  14.8151   7.7726   C.2       1 RES1   0.0000
   166 H64      3.8859  14.8710   7.3226   H         1 RES1   0.0000
   167 C58      2.6087  16.2192  12.0336   C.2       1 RES1   0.0000
   168 H58      2.2982  17.0022  11.6385   H         1 RES1   0.0000
   169 C46      0.8518  10.0389  15.9768   C.3       1 RES1   0.0000
   170 H46A     0.1142   9.5571  16.3600   H         1 RES1   0.0000
   171 H46B     0.9784   9.7570  15.0674   H         1 RES1   0.0000
   172 H46C     0.6643  10.9795  15.9971   H         1 RES1   0.0000
   173 C59      3.3075  15.2934  11.2656   C.2       1 RES1   0.0000
   174 C62      3.5039  15.5070   9.8144   C.2       1 RES1   0.0000
   175 C50      0.7765   6.0696  15.2936   C.2       1 RES1   0.0000
   176 H50      0.1095   6.0440  14.6465   H         1 RES1   0.0000
   177 Zn5      9.8353  13.8698   4.9284   Zn        1 RES1   0.0000
   178 Zn1     -4.5834  14.4753  30.8335   Zn        1 RES1   0.0000
   179 Zn2      2.8517  15.4658  18.1934   Zn        1 RES1   0.0000
   180 Zn3      2.7969  12.4201  17.6611   Zn        1 RES1   0.0000
   181 Zn9     -4.3953   0.9383  31.4796   Zn        1 RES1   0.0000
   182 Zn10    -4.1254  17.3388  31.4796   Zn        1 RES1   0.0000
   183 Zn11    10.0692  10.1845   4.4255   Zn        1 RES1   0.0000
   184 Zn12    24.3863  10.1845   4.4255   Zn        1 RES1   0.0000
   185 Zn13     2.1659  -0.3340  18.0499   Zn        1 RES1   0.0000
   186 Zn14    16.7315  12.6602  17.5862   Zn        1 RES1   0.0000
   187 O29     -2.2464  14.4446  31.6910   O.3       1 RES1   0.0000
   188 O30     -5.1273  14.4440  32.5755   O.3       1 RES1   0.0000
   189 O31      9.5900  13.0348   3.1262   O.3       1 RES1   0.0000
   190 O32      1.3596  13.0350  19.2993   O.3       1 RES1   0.0000
   191 O33      0.2048  12.8926  17.4434   O.3       1 RES1   0.0000
   192 O34     -6.2981  14.1930  30.7397   O.3       1 RES1   0.0000
   193 N15     10.4896  15.5356   4.6712   N.2       1 RES1   0.0000
   194 N16      2.9081  17.9984  17.7800   N.2       1 RES1   0.0000
   195 Zn15    -4.5272   1.2319  31.4108   Zn        1 RES1   0.0000
   196 Zn16    -4.2573  17.6324  31.4108   Zn        1 RES1   0.0000
   197 Zn17     9.5092  10.7127   4.3511   Zn        1 RES1   0.0000
   198 Zn18    23.8263  10.7127   4.3511   Zn        1 RES1   0.0000
   199 Zn19     2.5818  -0.9346  18.1934   Zn        1 RES1   0.0000
   200 Zn20    17.1140  12.4201  17.6611   Zn        1 RES1   0.0000
   201 O27      6.7625  18.6668  19.9916   O.2       2 RES2   0.0000
   202 N13      8.3756  18.1601  18.4794   N.am      2 RES2   0.0000
   203 C86      7.9193  18.6234  19.6393   C.2       2 RES2   0.0000
   204 H86      8.5521  18.9479  20.2394   H         2 RES2   0.0000
   205 C85      9.7964  18.1395  18.1616   C.3       2 RES2   0.0000
   206 H85A    10.2845  18.5971  18.8511   H         2 RES2   0.0000
   207 H85B     9.9432  18.5784  17.3211   H         2 RES2   0.0000
   208 H85C    10.0987  17.2304  18.1061   H         2 RES2   0.0000
   209 C87      7.4893  17.6603  17.4784   C.3       2 RES2   0.0000
   210 H87A     6.5878  17.6857  17.8085   H         2 RES2   0.0000
   211 H87B     7.7259  16.7545  17.2650   H         2 RES2   0.0000
   212 H87C     7.5569  18.2032  16.6901   H         2 RES2   0.0000
   213 N14      0.1315   9.4785  23.7494   N.am      3 RES3   0.0000
   214 C88      1.0675  10.6451  24.0646   C.3       3 RES3   0.0000
   215 H88A     1.5321  10.4715  24.8859   H         3 RES3   0.0000
   216 H88B     0.5548  11.4519  24.1499   H         3 RES3   0.0000
   217 H88C     1.7043  10.7452  23.3523   H         3 RES3   0.0000
   218 O28     -1.7659   8.7397  22.8781   O.2       3 RES3   0.0000
   219 C89      0.6502   8.1364  24.1493   C.3       3 RES3   0.0000
   220 H89A     1.4648   7.9539  23.6759   H         3 RES3   0.0000
   221 H89B    -0.0010   7.4637  23.9375   H         3 RES3   0.0000
   222 H89C     0.8220   8.1276  25.0946   H         3 RES3   0.0000
   223 C90     -0.9996   9.8485  23.2251   C.2       3 RES3   0.0000
   224 H90     -1.2595  10.7324  23.0982   H         3 RES3   0.0000
@<TRIPOS>BOND
     1     1     6    1
     2     1    14    1
     3     1   189    1
     4     1   193    1
     5     2     8    1
     6     2    19    1
     7     2   187    1
     8     2   188    1
     9     2   192    1
    10     3    10    1
    11     3    12    1
    12     3    18    1
    13     3    20    1
    14     3   194    1
    15     4     7    1
    16     4    16    1
    17     4    21    1
    18     4   190    1
    19     4   191    1
    20     5    56   un
    21     5   183    1
    22     6    56   un
    23     7    82   un
    24     8    39   un
    25     9    92   un
    26     9   184    1
    27    10    37   un
    28    11    39   un
    29    11   182    1
    30    12    82   un
    31    13    32    2
    32    14    32    1
    33    15   126   un
    34    15   186    1
    35    16    55   un
    36    17    91    2
    37    18    37   un
    38    19    34    1
    39    19    77    2
    40    20    55   un
    41    21    45    1
    42    21    95    2
    43    22   126   un
    44    22   186    1
    45    23    92   un
    46    23   184    1
    47    24   112    2
    48    25    61    1
    49    25    89    1
    50    25    95    1
    51    26    36    1
    52    26    80    1
    53    26    87    1
    54    27    36    2
    55    27    85    1
    56    27   181    1
    57    28    72    2
    58    28   127    1
    59    28   185    1
    60    29    72    1
    61    29   117    1
    62    29   153    1
    63    30    90    2
    64    30   151    1
    65    31    57    1
    66    31    77    1
    67    31    90    1
    68    32    38    1
    69    33    37    1
    70    33    59    1
    71    33    75    2
    72    34    35    1
    73    34    57    2
    74    36    48    1
    75    38    96    1
    76    38   102    2
    77    39    65    1
    78    40    87    1
    79    40   151    2
    80    41    42    1
    81    41    66    2
    82    41   110    1
    83    43    44    1
    84    43    87    2
    85    43    90    1
    86    45    46    1
    87    45    61    2
    88    47   108    1
    89    47   139    2
    90    47   160    1
    91    48    49    1
    92    48    50    1
    93    48    51    1
    94    52    53    1
    95    52    91    1
    96    52   141    2
    97    53    54    1
    98    53   115    2
    99    55    66    1
   100    56    83    1
   101    57    58    1
   102    59    60    1
   103    59    78    2
   104    61    62    1
   105    63   160    2
   106    64    70    2
   107    64   124    1
   108    64   160    1
   109    65   106    2
   110    65   115    1
   111    66   113    1
   112    67    68    1
   113    67    83    1
   114    67   124    2
   115    69   110    2
   116    69   112    1
   117    69   137    1
   118    70    71    1
   119    70    73    1
   120    72   118    1
   121    73    74    1
   122    73    83    2
   123    75    76    1
   124    75   100    1
   125    77   161    1
   126    78    79    1
   127    78   129    1
   128    80    81    1
   129    80    85    2
   130    82   133    1
   131    84   112    1
   132    84   134    2
   133    84   149    1
   134    85    86    1
   135    88   104    1
   136    88   122    2
   137    88   126    1
   138    89    98    2
   139    89   131    1
   140    91   129    1
   141    92    99    1
   142    93    94    1
   143    93    99    2
   144    93   139    1
   145    95   169    1
   146    96    97    1
   147    96   143    2
   148    98   175    1
   149    99   147    1
   150   100   101    1
   151   100   129    2
   152   102   103    1
   153   102   165    1
   154   104   105    1
   155   104   149    2
   156   106   107    1
   157   106   141    1
   158   108   109    1
   159   108   147    2
   160   110   111    1
   161   113   114    1
   162   113   137    2
   163   115   116    1
   164   117   130    1
   165   117   131    2
   166   118   119    1
   167   118   120    1
   168   118   121    1
   169   122   123    1
   170   122   134    1
   171   124   125    1
   172   127   128    1
   173   127   153    2
   174   130   175    2
   175   131   132    1
   176   133   145    2
   177   133   158    1
   178   134   135    1
   179   136   174    2
   180   137   138    1
   181   139   140    1
   182   141   142    1
   183   143   144    1
   184   143   157    1
   185   145   146    1
   186   145   167    1
   187   147   148    1
   188   149   150    1
   189   151   152    1
   190   153   154    1
   191   155   156    1
   192   155   158    2
   193   155   173    1
   194   157   165    2
   195   157   174    1
   196   158   159    1
   197   161   162    1
   198   161   163    1
   199   161   164    1
   200   165   166    1
   201   167   168    1
   202   167   173    2
   203   169   170    1
   204   169   171    1
   205   169   172    1
   206   173   174    1
   207   175   176    1
   208     5   197    1
   209     6   177    1
   210     7   180    1
   211     8   178    1
   212     9   198    1
   213    11   196    1
   214    12   179    1
   215    14   177    1
   216    15   200    1
   217    16   180    1
   218    18   179    1
   219    20   179    1
   220    21   180    1
   221    23   198    1
   222    27   195    1
   223    28   199    1
   224   177   189    1
   225   177   193    1
   226   178   187    1
   227   178   188    1
   228   178   192    1
   229   179   194    1
   230   180   190    1
   231   201   203    2
   232   202   203   am
   233   202   205    1
   234   202   209    1
   235   203   204    1
   236   205   206    1
   237   205   207    1
   238   205   208    1
   239   209   210    1
   240   209   211    1
   241   209   212    1
   242   213   214    1
   243   213   219    1
   244   213   223   am
   245   214   215    1
   246   214   216    1
   247   214   217    1
   248   218   223    2
   249   219   220    1
   250   219   221    1
   251   219   222    1
   252   223   224    1
@<TRIPOS>SUBSTRUCTURE
     1 RES1        1 GROUP             0 ****  ****    0  
     2 RES2      201 GROUP             0 ****  ****    0  
     3 RES3      213 GROUP             0 ****  ****    0  
@<TRIPOS>CRYSIN
   14.3171   16.4027   26.7493   81.9070   89.5190   89.0570     2     1
