####################################################################### 
# 
# This file contains crystal structure data downloaded from the 
# Cambridge Structural Database (CSD) hosted by the Cambridge 
# Crystallographic Data Centre (CCDC).
# 
# Full information about CCDC data access policies and citation 
# guidelines are available at http://www.ccdc.cam.ac.uk/access/V1 
# 
# Audit and citation data items may have been added by the CCDC. 
# Please retain this information to preserve the provenance of 
# this file and to allow appropriate attribution of the data. 
# 
#######################################################################
@<TRIPOS>MOLECULE
VUVMOR
   115   125     3     0     0
SMALL
USER_CHARGES
****
Generated from the CSD

@<TRIPOS>ATOM
     1 Cd1      0.7766   4.5730  14.5134   Cd        1 RES1   0.0000
     2 C1      -0.7070   3.8307  12.3481   C.2       1 RES1   0.0000
     3 C2      -1.5648   3.5271  11.1888   C.2       1 RES1   0.0000
     4 C3      -2.8026   3.0964  11.3256   C.2       1 RES1   0.0000
     5 H3      -3.1212   2.9395  12.1863   H         1 RES1   0.0000
     6 C4      -3.6748   2.8574  10.2346   C.2       1 RES1   0.0000
     7 H4      -4.5570   2.5893  10.3544   H         1 RES1   0.0000
     8 C5      -3.1327   3.0469   8.9883   C.2       1 RES1   0.0000
     9 C6      -1.8788   3.4431   8.8143   C.2       1 RES1   0.0000
    10 H6      -1.5567   3.5790   7.9508   H         1 RES1   0.0000
    11 C7      -1.0362   3.6606   9.8990   C.2       1 RES1   0.0000
    12 H7      -0.1443   3.8900   9.7708   H         1 RES1   0.0000
    13 C8       0.5791   4.6231  17.3333   C.2       1 RES1   0.0000
    14 C9       0.3487   4.4832  18.7941   C.2       1 RES1   0.0000
    15 C10     -0.8470   3.9707  19.2727   C.2       1 RES1   0.0000
    16 H10     -1.4982   3.6894  18.6693   H         1 RES1   0.0000
    17 C11     -1.0828   3.8695  20.6154   C.2       1 RES1   0.0000
    18 H11     -1.8796   3.5042  20.9270   H         1 RES1   0.0000
    19 C12     -0.1282   4.3195  21.5074   C.2       1 RES1   0.0000
    20 C13      1.0729   4.8449  21.0412   C.2       1 RES1   0.0000
    21 H13      1.7293   5.1341  21.6325   H         1 RES1   0.0000
    22 C14      1.2639   4.9289  19.7016   C.2       1 RES1   0.0000
    23 H14      2.0541   5.3053  19.3874   H         1 RES1   0.0000
    24 C15     -1.0416   7.0671  15.2820   C.2       1 RES1   0.0000
    25 H15     -1.3769   6.4261  15.8665   H         1 RES1   0.0000
    26 C16     -1.5458   8.3677  15.3473   C.2       1 RES1   0.0000
    27 H16     -2.1673   8.6177  15.9927   H         1 RES1   0.0000
    28 C17     -1.0701   9.2743  14.3963   C.2       1 RES1   0.0000
    29 C18     -0.1797   8.8630  13.5105   C.2       1 RES1   0.0000
    30 H18      0.1398   9.4486  12.8625   H         1 RES1   0.0000
    31 C19      0.2726   7.5667  13.5478   C.2       1 RES1   0.0000
    32 H19      0.8853   7.3062  12.8965   H         1 RES1   0.0000
    33 C20     -1.6030  10.6847  14.4553   C.2       1 RES1   0.0000
    34 C21     -2.4773  11.0916  15.3970   C.2       1 RES1   0.0000
    35 H21     -2.7473  10.5021  16.0638   H         1 RES1   0.0000
    36 C22     -2.9717  12.3772  15.3722   C.2       1 RES1   0.0000
    37 H22     -3.6150  12.5951  16.0078   H         1 RES1   0.0000
    38 C23     -1.7130  12.9435  13.6566   C.2       1 RES1   0.0000
    39 H23     -1.4083  13.5868  13.0598   H         1 RES1   0.0000
    40 C24     -1.1989  11.6472  13.5820   C.2       1 RES1   0.0000
    41 H24     -0.5717  11.4380  12.9276   H         1 RES1   0.0000
    42 N1      -0.0777   6.7054  14.3931   N.2       1 RES1   0.0000
    43 N2      -2.6348  13.2837  14.5703   N.2       1 RES1   0.0000
    44 N3      -3.9215   2.9672   7.7607   N.pl3     1 RES1   1.0000
    45 N4      -0.4626   4.2312  22.8966   N.pl3     1 RES1   1.0000
    46 O1      -1.1720   3.5896  13.4890   O.co2     1 RES1   0.0000
    47 O2       0.4081   4.3044  12.1855   O.co2     1 RES1   0.0000
    48 O3       1.5975   5.1981  16.8802   O.co2     1 RES1   0.0000
    49 O4      -0.2402   4.0870  16.5392   O.co2     1 RES1   0.0000
    50 O5A     -3.1000   2.0456   6.6977   O.3       1 RES1  -1.0000
    51 O6A     -1.5087   3.3527  23.1826   O.3       1 RES1  -1.0000
    52 C25     -8.2520   3.8307   3.1919   C.2       1 RES1   0.0000
    53 C26     -7.3942   3.5271   4.3512   C.2       1 RES1   0.0000
    54 C27     -6.1564   3.0964   4.2144   C.2       1 RES1   0.0000
    55 H17     -5.8378   2.9395   3.3537   H         1 RES1   0.0000
    56 C28     -5.2842   2.8574   5.3054   C.2       1 RES1   0.0000
    57 H20     -4.4020   2.5893   5.1856   H         1 RES1   0.0000
    58 C29     -5.8263   3.0469   6.5517   C.2       1 RES1   0.0000
    59 C30     -7.0802   3.4431   6.7257   C.2       1 RES1   0.0000
    60 H25     -7.4023   3.5790   7.5892   H         1 RES1   0.0000
    61 C31     -7.9228   3.6606   5.6410   C.2       1 RES1   0.0000
    62 H26     -8.8147   3.8900   5.7692   H         1 RES1   0.0000
    63 N5      -5.0375   2.9672   7.7793   N.pl3     1 RES1   1.0000
    64 O9      -7.7870   3.5896   2.0510   O.co2     1 RES1   0.0000
    65 O10     -9.3671   4.3044   3.3545   O.co2     1 RES1   0.0000
    66 O12     -5.8590   2.0456   8.8423   O.3       1 RES1  -1.0000
    67 C32     -0.5873   4.6231  29.2867   C.2       1 RES1   0.0000
    68 C33     -0.3568   4.4832  27.8259   C.2       1 RES1   0.0000
    69 C34      0.8389   3.9707  27.3473   C.2       1 RES1   0.0000
    70 H27      1.4900   3.6894  27.9507   H         1 RES1   0.0000
    71 C35      1.0747   3.8695  26.0046   C.2       1 RES1   0.0000
    72 H28      1.8715   3.5042  25.6930   H         1 RES1   0.0000
    73 C36      0.1201   4.3195  25.1126   C.2       1 RES1   0.0000
    74 C37     -1.0810   4.8449  25.5788   C.2       1 RES1   0.0000
    75 H29     -1.7375   5.1341  24.9875   H         1 RES1   0.0000
    76 C38     -1.2720   4.9289  26.9184   C.2       1 RES1   0.0000
    77 H30     -2.0622   5.3053  27.2326   H         1 RES1   0.0000
    78 N6       0.4544   4.2312  23.7234   N.pl3     1 RES1   1.0000
    79 O13     -1.6057   5.1981  29.7398   O.co2     1 RES1   0.0000
    80 O14      0.2321   4.0870  30.0808   O.co2     1 RES1   0.0000
    81 O16      1.5006   3.3527  23.4374   O.3       1 RES1  -1.0000
    82 Cd2     -9.7356   4.5730   1.0266   Cd        1 RES1   0.0000
    83 C39     -7.9174   7.0671   0.2580   C.2       1 RES1   0.0000
    84 H31     -7.5821   6.4261  -0.3265   H         1 RES1   0.0000
    85 C40     -7.4132   8.3677   0.1927   C.2       1 RES1   0.0000
    86 H32     -6.7917   8.6177  -0.4527   H         1 RES1   0.0000
    87 C41     -7.8889   9.2743   1.1437   C.2       1 RES1   0.0000
    88 C42     -8.7793   8.8630   2.0295   C.2       1 RES1   0.0000
    89 H33     -9.0988   9.4486   2.6775   H         1 RES1   0.0000
    90 C43     -9.2316   7.5667   1.9922   C.2       1 RES1   0.0000
    91 H34     -9.8443   7.3062   2.6435   H         1 RES1   0.0000
    92 C44     -7.3560  10.6847   1.0847   C.2       1 RES1   0.0000
    93 C45     -6.4817  11.0916   0.1430   C.2       1 RES1   0.0000
    94 H35     -6.2117  10.5021  -0.5238   H         1 RES1   0.0000
    95 C46     -5.9873  12.3772   0.1678   C.2       1 RES1   0.0000
    96 H36     -5.3440  12.5951  -0.4678   H         1 RES1   0.0000
    97 C47     -7.2460  12.9435   1.8834   C.2       1 RES1   0.0000
    98 H37     -7.5507  13.5868   2.4802   H         1 RES1   0.0000
    99 C48     -7.7601  11.6472   1.9580   C.2       1 RES1   0.0000
   100 H38     -8.3874  11.4380   2.6124   H         1 RES1   0.0000
   101 N7      -8.8813   6.7054   1.1469   N.2       1 RES1   0.0000
   102 N8      -6.3242  13.2837   0.9697   N.2       1 RES1   0.0000
   103 Cd3     -0.7847   4.5730  32.1066   Cd        1 RES1   0.0000
   104 Cd4     -3.7016  15.3395  14.5134   Cd        1 RES1   0.0000
   105 Cd5     -5.2574  15.3395   1.0266   Cd        1 RES1   0.0000
   106 Cd6      3.6962   6.1935  16.5666   Cd        1 RES1   0.0000
   107 Cd7     -3.7043   6.1935  30.0534   Cd        1 RES1   0.0000
   108 N9       1.8434   2.5172  14.5703   N.3       1 RES1   0.0000
   109 N10    -10.8024   2.5172   0.9697   N.3       1 RES1   0.0000
   110 O17    -10.5566   5.1981  -1.3402   O.3       1 RES1   0.0000
   111 O18      2.8752   5.5684  14.1998   O.3       1 RES1   0.0000
   112 O19    -11.8342   5.5684   1.3402   O.3       1 RES1   0.0000
   113 O20     -8.7188   4.0870  -0.9992   O.3       1 RES1   0.0000
   114 O5?     -2.8582   2.8596   6.4740   O.3       2 RES2  -1.0000
   115 O6?     -2.0461   4.0051  23.1049   O.3       3 RES3  -1.0000
@<TRIPOS>BOND
     1     1    42    1
     2     1    46    1
     3     1    47    1
     4     1    48    1
     5     1    49    1
     6     1   108    1
     7     1   111    1
     8     2     3    1
     9     2    46   un
    10     2    47   un
    11     3     4    2
    12     3    11    1
    13     4     5    1
    14     4     6    1
    15     6     7    1
    16     6     8    2
    17     8     9    1
    18     8    44    1
    19     9    10    1
    20     9    11    2
    21    11    12    1
    22    13    14    1
    23    13    48   un
    24    13    49   un
    25    14    15    1
    26    14    22    2
    27    15    16    1
    28    15    17    2
    29    17    18    1
    30    17    19    1
    31    19    20    2
    32    19    45    1
    33    20    21    1
    34    20    22    1
    35    22    23    1
    36    24    25    1
    37    24    26    2
    38    24    42    1
    39    26    27    1
    40    26    28    1
    41    28    29    2
    42    28    33    1
    43    29    30    1
    44    29    31    1
    45    31    32    1
    46    31    42    2
    47    33    34    2
    48    33    40    1
    49    34    35    1
    50    34    36    1
    51    36    37    1
    52    36    43    2
    53    38    39    1
    54    38    40    2
    55    38    43    1
    56    40    41    1
    57    43   104    1
    58    44    50    1
    59    44    63    2
    60    45    51    1
    61    45    78    2
    62    48   106    1
    63    52    53    1
    64    52    64   un
    65    52    65   un
    66    53    54    2
    67    53    61    1
    68    54    55    1
    69    54    56    1
    70    56    57    1
    71    56    58    2
    72    58    59    1
    73    58    63    1
    74    59    60    1
    75    59    61    2
    76    61    62    1
    77    63    66    1
    78    64    82    1
    79    65    82    1
    80    67    68    1
    81    67    79   un
    82    67    80   un
    83    68    69    1
    84    68    76    2
    85    69    70    1
    86    69    71    2
    87    71    72    1
    88    71    73    1
    89    73    74    2
    90    73    78    1
    91    74    75    1
    92    74    76    1
    93    76    77    1
    94    78    81    1
    95    79   103    1
    96    79   107    1
    97    80   103    1
    98    82   101    1
    99    82   109    1
   100    82   110    1
   101    82   112    1
   102    82   113    1
   103    83    84    1
   104    83    85    2
   105    83   101    1
   106    85    86    1
   107    85    87    1
   108    87    88    2
   109    87    92    1
   110    88    89    1
   111    88    90    1
   112    90    91    1
   113    90   101    2
   114    92    93    2
   115    92    99    1
   116    93    94    1
   117    93    95    1
   118    95    96    1
   119    95   102    2
   120    97    98    1
   121    97    99    2
   122    97   102    1
   123    99   100    1
   124   102   105    1
   125   106   111    1
@<TRIPOS>SUBSTRUCTURE
     1 RES1        1 GROUP             0 ****  ****    0  
     2 RES2      114 GROUP             0 ****  ****    0  
     3 RES3      115 GROUP             0 ****  ****    0  
@<TRIPOS>CRYSIN
    8.9563   21.5330   31.0800   90.0000   90.0100   90.0000    15     1
