####################################################################### 
# 
# This file contains crystal structure data downloaded from the 
# Cambridge Structural Database (CSD) hosted by the Cambridge 
# Crystallographic Data Centre (CCDC).
# 
# Full information about CCDC data access policies and citation 
# guidelines are available at http://www.ccdc.cam.ac.uk/access/V1 
# 
# Audit and citation data items may have been added by the CCDC. 
# Please retain this information to preserve the provenance of 
# this file and to allow appropriate attribution of the data. 
# 
#######################################################################
@<TRIPOS>MOLECULE
SUTQIK
   179   190     9     0     0
SMALL
USER_CHARGES
****
Generated from the CSD

@<TRIPOS>ATOM
     1 Zn1      6.6516   4.4767   2.9455   Zn        1 RES1   0.0000
     2 C1      14.1609   1.0256   6.1865   C.2       1 RES1   0.0000
     3 H1      14.5890   0.1995   6.1624   H         1 RES1   0.0000
     4 C2      13.7557   1.5997   5.0711   C.2       1 RES1   0.0000
     5 H2      13.9693   1.1964   4.2611   H         1 RES1   0.0000
     6 C3      13.0034   2.8117   5.0543   C.2       1 RES1   0.0000
     7 C4      12.6757   3.3368   6.2969   C.2       1 RES1   0.0000
     8 C5      13.1998   2.8583   7.5058   C.2       1 RES1   0.0000
     9 C6      13.9396   1.6659   7.4003   C.2       1 RES1   0.0000
    10 H6      14.2962   1.2915   8.1730   H         1 RES1   0.0000
    11 C7      10.5322   4.2347   6.8332   C.3       1 RES1   0.0000
    12 H7A     10.1100   5.0866   7.0224   H         1 RES1   0.0000
    13 H7B     10.6094   3.7494   7.6698   H         1 RES1   0.0000
    14 C8       9.6609   3.4558   5.8977   C.2       1 RES1   0.0000
    15 C9       9.7702   2.0904   5.7595   C.2       1 RES1   0.0000
    16 H9      10.3874   1.6181   6.2690   H         1 RES1   0.0000
    17 C10      8.9598   1.4279   4.8624   C.2       1 RES1   0.0000
    18 H10      9.0374   0.5070   4.7497   H         1 RES1   0.0000
    19 C11      8.0360   2.1409   4.1379   C.2       1 RES1   0.0000
    20 H11      7.4875   1.6905   3.5363   H         1 RES1   0.0000
    21 C12      8.6984   4.0858   5.1502   C.2       1 RES1   0.0000
    22 H12      8.5915   5.0028   5.2628   H         1 RES1   0.0000
    23 C13     15.7042   5.9277   4.2459   C.2       1 RES1   0.0000
    24 H13     16.5963   5.8793   4.5034   H         1 RES1   0.0000
    25 C14     15.1538   7.1225   3.9172   C.2       1 RES1   0.0000
    26 H14     15.6715   7.8930   3.9775   H         1 RES1   0.0000
    27 C15     13.8055   7.2231   3.4831   C.2       1 RES1   0.0000
    28 C16     13.1099   6.0332   3.4111   C.2       1 RES1   0.0000
    29 C17     13.6147   4.8015   3.7781   C.2       1 RES1   0.0000
    30 C18     14.9381   4.7843   4.1955   C.2       1 RES1   0.0000
    31 H18     15.3203   3.9755   4.4481   H         1 RES1   0.0000
    32 C19     11.7505   5.9522   1.5160   C.3       1 RES1   0.0000
    33 H19A    12.3012   5.1989   1.2528   H         1 RES1   0.0000
    34 H19B    12.1069   6.7510   1.0958   H         1 RES1   0.0000
    35 C20     10.3469   5.7314   1.0725   C.2       1 RES1   0.0000
    36 C21     10.0495   5.7755  -0.2759   C.2       1 RES1   0.0000
    37 H21     10.6717   6.0684  -0.9011   H         1 RES1   0.0000
    38 C22      8.7939   5.3634  -0.6477   C.2       1 RES1   0.0000
    39 H22      8.5669   5.3381  -1.5496   H         1 RES1   0.0000
    40 C23      7.8908   4.9978   0.2735   C.2       1 RES1   0.0000
    41 H23      7.0508   4.7250  -0.0156   H         1 RES1   0.0000
    42 C24      9.3664   5.3413   1.9531   C.2       1 RES1   0.0000
    43 H24      9.5749   5.3106   2.8589   H         1 RES1   0.0000
    44 C25     13.1721   8.5627   3.2720   C.3       1 RES1   0.0000
    45 H25A    13.6366   9.0218   2.5555   H         1 RES1   0.0000
    46 H25B    12.2508   8.4362   2.9954   H         1 RES1   0.0000
    47 C26     12.7365   3.5625   3.8141   C.3       1 RES1   0.0000
    48 H26A    11.8015   3.8203   3.7814   H         1 RES1   0.0000
    49 H26B    12.9245   3.0032   3.0447   H         1 RES1   0.0000
    50 C27      4.7558   2.9540   2.2357   C.2       1 RES1   0.0000
    51 C28      3.6536   2.2351   1.4729   C.2       1 RES1   0.0000
    52 C29      3.5333   2.1076   0.1079   C.2       1 RES1   0.0000
    53 H29      4.1833   2.4595  -0.4549   H         1 RES1   0.0000
    54 C30      2.4256   1.4427  -0.4222   C.2       1 RES1   0.0000
    55 H30      2.3101   1.3739  -1.3415   H         1 RES1   0.0000
    56 C31      1.4963   0.8857   0.4534   C.2       1 RES1   0.0000
    57 C32      1.6968   0.9593   1.7583   C.2       1 RES1   0.0000
    58 H32      1.0873   0.5612   2.3366   H         1 RES1   0.0000
    59 C33      2.7852   1.6144   2.2765   C.2       1 RES1   0.0000
    60 H33      2.9205   1.6249   3.1973   H         1 RES1   0.0000
    61 C34      5.7418   6.8673   3.5790   C.2       1 RES1   0.0000
    62 C35      5.2287   8.1309   3.9844   C.2       1 RES1   0.0000
    63 C36      4.6230   8.8154   2.8978   C.2       1 RES1   0.0000
    64 H36      4.5964   8.4384   2.0472   H         1 RES1   0.0000
    65 C37      4.0782  10.0520   3.1376   C.2       1 RES1   0.0000
    66 H37      3.6966  10.5352   2.4417   H         1 RES1   0.0000
    67 C38      4.0961  10.5918   4.4594   C.2       1 RES1   0.0000
    68 C39      4.5248   9.8606   5.4573   C.2       1 RES1   0.0000
    69 H39      4.4284  10.1685   6.3289   H         1 RES1   0.0000
    70 C40      5.1195   8.6339   5.2222   C.2       1 RES1   0.0000
    71 H40      5.4519   8.1453   5.9414   H         1 RES1   0.0000
    72 N1       7.9033   3.4685   4.2713   N.2       1 RES1   0.0000
    73 N2       8.1356   5.0049   1.5794   N.2       1 RES1   0.0000
    74 N3       0.5739   0.2012  -0.5997   N.pl3     1 RES1   0.0000
    75 O1      11.8625   4.4727   6.2995   O.3       1 RES1   0.0000
    76 O2      11.7795   6.0992   2.9275   O.3       1 RES1   0.0000
    77 O3       4.7890   3.1527   3.4135   O.co2     1 RES1   0.0000
    78 O4       5.7155   3.3220   1.5328   O.co2     1 RES1   0.0000
    79 O6       5.4832   6.3570   2.3436   O.co2     1 RES1   0.0000
    80 O7       6.3489   6.0773   4.3562   O.co2     1 RES1   0.0000
    81 O5       0.7869  -0.0564  -1.7823   O.3       1 RES1  -1.0000
    82 O8       3.4573  12.2675   6.2873   O.3       1 RES1   0.0000
    83 N4A      3.5914  11.8651   5.0351   N.pl3     1 RES1   0.0000
    84 C1      14.1609  11.2419   5.8075   C.2       1 RES1   0.0000
    85 H1      14.5890  12.0680   5.8316   H         1 RES1   0.0000
    86 C2      13.7557  10.6678   6.9229   C.2       1 RES1   0.0000
    87 H2      13.9693  11.0711   7.7329   H         1 RES1   0.0000
    88 C3      13.0034   9.4558   6.9397   C.2       1 RES1   0.0000
    89 C4      12.6757   8.9307   5.6971   C.2       1 RES1   0.0000
    90 C5      13.1998   9.4092   4.4882   C.2       1 RES1   0.0000
    91 C6      13.9396  10.6016   4.5937   C.2       1 RES1   0.0000
    92 H6      14.2962  10.9760   3.8210   H         1 RES1   0.0000
    93 C7      10.5322   8.0328   5.1608   C.3       1 RES1   0.0000
    94 H7A     10.1100   7.1809   4.9716   H         1 RES1   0.0000
    95 H7B     10.6094   8.5181   4.3242   H         1 RES1   0.0000
    96 C8       9.6609   8.8117   6.0963   C.2       1 RES1   0.0000
    97 C9       9.7702  10.1771   6.2345   C.2       1 RES1   0.0000
    98 H9      10.3874  10.6494   5.7250   H         1 RES1   0.0000
    99 C10      8.9598  10.8396   7.1316   C.2       1 RES1   0.0000
   100 H10      9.0374  11.7605   7.2443   H         1 RES1   0.0000
   101 C11      8.0360  10.1266   7.8561   C.2       1 RES1   0.0000
   102 H11      7.4875  10.5770   8.4577   H         1 RES1   0.0000
   103 C12      8.6984   8.1817   6.8438   C.2       1 RES1   0.0000
   104 H12      8.5915   7.2647   6.7312   H         1 RES1   0.0000
   105 C13     15.7042   6.3398   7.7481   C.2       1 RES1   0.0000
   106 H13     16.5963   6.3882   7.4906   H         1 RES1   0.0000
   107 C14     15.1538   5.1450   8.0768   C.2       1 RES1   0.0000
   108 H14     15.6715   4.3745   8.0165   H         1 RES1   0.0000
   109 C15     13.8055   5.0444   8.5109   C.2       1 RES1   0.0000
   110 C16     13.1099   6.2343   8.5829   C.2       1 RES1   0.0000
   111 C17     13.6147   7.4660   8.2159   C.2       1 RES1   0.0000
   112 C18     14.9381   7.4832   7.7985   C.2       1 RES1   0.0000
   113 H18     15.3203   8.2920   7.5459   H         1 RES1   0.0000
   114 C19     11.7505   6.3153  10.4780   C.3       1 RES1   0.0000
   115 H19A    12.3012   7.0686  10.7412   H         1 RES1   0.0000
   116 H19B    12.1069   5.5165  10.8982   H         1 RES1   0.0000
   117 C20     10.3469   6.5361  10.9215   C.2       1 RES1   0.0000
   118 C21     10.0495   6.4920  12.2699   C.2       1 RES1   0.0000
   119 H21     10.6717   6.1991  12.8951   H         1 RES1   0.0000
   120 C22      8.7939   6.9041  12.6417   C.2       1 RES1   0.0000
   121 H22      8.5669   6.9294  13.5436   H         1 RES1   0.0000
   122 C23      7.8908   7.2697  11.7205   C.2       1 RES1   0.0000
   123 H23      7.0508   7.5425  12.0096   H         1 RES1   0.0000
   124 C24      9.3664   6.9262  10.0409   C.2       1 RES1   0.0000
   125 H24      9.5749   6.9569   9.1351   H         1 RES1   0.0000
   126 C25     13.1721   3.7048   8.7220   C.3       1 RES1   0.0000
   127 H25A    13.6366   3.2457   9.4385   H         1 RES1   0.0000
   128 H25B    12.2508   3.8313   8.9986   H         1 RES1   0.0000
   129 C26     12.7365   8.7050   8.1799   C.3       1 RES1   0.0000
   130 H26A    11.8015   8.4472   8.2126   H         1 RES1   0.0000
   131 H26B    12.9245   9.2643   8.9493   H         1 RES1   0.0000
   132 N1       7.9033   8.7990   7.7227   N.2       1 RES1   0.0000
   133 N2       8.1356   7.2626  10.4146   N.2       1 RES1   0.0000
   134 O1      11.8625   7.7948   5.6945   O.3       1 RES1   0.0000
   135 O2      11.7795   6.1683   9.0665   O.3       1 RES1   0.0000
   136 C27     -4.7558  -2.9540  -2.2357   C.2       1 RES1   0.0000
   137 C28     -3.6536  -2.2351  -1.4729   C.2       1 RES1   0.0000
   138 C29     -3.5333  -2.1076  -0.1079   C.2       1 RES1   0.0000
   139 H29     -4.1833  -2.4595   0.4549   H         1 RES1   0.0000
   140 C30     -2.4256  -1.4427   0.4222   C.2       1 RES1   0.0000
   141 H30     -2.3101  -1.3739   1.3415   H         1 RES1   0.0000
   142 C31     -1.4963  -0.8857  -0.4534   C.2       1 RES1   0.0000
   143 C32     -1.6968  -0.9593  -1.7583   C.2       1 RES1   0.0000
   144 H32     -1.0873  -0.5612  -2.3366   H         1 RES1   0.0000
   145 C33     -2.7852  -1.6144  -2.2765   C.2       1 RES1   0.0000
   146 H33     -2.9205  -1.6249  -3.1973   H         1 RES1   0.0000
   147 N3      -0.5739  -0.2012   0.5997   N.pl3     1 RES1   0.0000
   148 O3      -4.7890  -3.1527  -3.4135   O.co2     1 RES1   0.0000
   149 O4      -5.7155  -3.3220  -1.5328   O.co2     1 RES1   0.0000
   150 O5      -0.7869   0.0564   1.7823   O.3       1 RES1  -1.0000
   151 C34      1.1727  17.6677   3.5790   C.2       1 RES1   0.0000
   152 C35      1.6858  16.4041   3.9844   C.2       1 RES1   0.0000
   153 C36      2.2915  15.7196   2.8978   C.2       1 RES1   0.0000
   154 H36      2.3181  16.0966   2.0472   H         1 RES1   0.0000
   155 C37      2.8363  14.4830   3.1376   C.2       1 RES1   0.0000
   156 H37      3.2179  13.9998   2.4417   H         1 RES1   0.0000
   157 C38      2.8184  13.9432   4.4594   C.2       1 RES1   0.0000
   158 C39      2.3897  14.6744   5.4573   C.2       1 RES1   0.0000
   159 H39      2.4861  14.3665   6.3289   H         1 RES1   0.0000
   160 C40      1.7950  15.9011   5.2222   C.2       1 RES1   0.0000
   161 H40      1.4626  16.3897   5.9414   H         1 RES1   0.0000
   162 O6       1.4313  18.1780   2.3436   O.co2     1 RES1   0.0000
   163 O7       0.5656  18.4577   4.3562   O.co2     1 RES1   0.0000
   164 N4A      3.3231  12.6699   5.0351   N.pl3     1 RES1   0.0000
   165 Zn1      0.2629  20.0583   2.9455   Zn        1 RES1   0.0000
   166 Zn1      6.6516   7.7908   9.0485   Zn        1 RES1   0.0000
   167 Zn1     -6.6516  -4.4767  -2.9455   Zn        1 RES1   0.0000
   168 N1      -0.9888  21.0665   4.2713   N.3       1 RES1   0.0000
   169 N2      -1.2211  19.5301   1.5794   N.3       1 RES1   0.0000
   170 O3       2.1255  21.3823   3.4135   O.3       1 RES1   0.0000
   171 O4       1.1990  21.2130   1.5328   O.3       1 RES1   0.0000
   172 O4A?     5.5440   3.6729   0.8444   O.3       2 RES2   0.0000
   173 C27A?    4.9162   3.0546   1.6744   C.3       3 RES3   0.0000
   174 O3A?     5.3007   3.0276   2.8282   O.3       4 RES4   0.0000
   175 O6A?     5.5980   6.0258   3.1640   O.3       5 RES5   0.0000
   176 C34A?    6.2244   6.7447   4.0228   C.3       6 RES6   0.0000
   177 O7A?     7.3377   6.8232   4.2795   O.3       7 RES7   0.0000
   178 N5?      0.3194   0.1619   0.0576   N.3       8 RES8   0.0000
   179 N4?      3.4821  11.9314   4.0420   N.3       9 RES9   0.0000
@<TRIPOS>BOND
     1     1    72    1
     2     1    73    1
     3     1    77    1
     4     1    78    1
     5     1    79    1
     6     1    80    1
     7     2     3    1
     8     2     4    2
     9     2     9    1
    10     4     5    1
    11     4     6    1
    12     6     7    2
    13     6    47    1
    14     7     8    1
    15     7    75    1
    16     8     9    2
    17     8   126    1
    18     9    10    1
    19    11    12    1
    20    11    13    1
    21    11    14    1
    22    11    75    1
    23    14    15    2
    24    14    21    1
    25    15    16    1
    26    15    17    1
    27    17    18    1
    28    17    19    2
    29    19    20    1
    30    19    72    1
    31    21    22    1
    32    21    72    2
    33    23    24    1
    34    23    25    2
    35    23    30    1
    36    25    26    1
    37    25    27    1
    38    27    28    2
    39    27    44    1
    40    28    29    1
    41    28    76    1
    42    29    30    2
    43    29    47    1
    44    30    31    1
    45    32    33    1
    46    32    34    1
    47    32    35    1
    48    32    76    1
    49    35    36    2
    50    35    42    1
    51    36    37    1
    52    36    38    1
    53    38    39    1
    54    38    40    2
    55    40    41    1
    56    40    73    1
    57    42    43    1
    58    42    73    2
    59    44    45    1
    60    44    46    1
    61    44    90    1
    62    47    48    1
    63    47    49    1
    64    50    51    1
    65    50    77   un
    66    50    78   un
    67    51    52    1
    68    51    59    2
    69    52    53    1
    70    52    54    2
    71    54    55    1
    72    54    56    1
    73    56    57    2
    74    56    74    1
    75    57    58    1
    76    57    59    1
    77    59    60    1
    78    61    62    1
    79    61    79   un
    80    61    80   un
    81    62    63    1
    82    62    70    2
    83    63    64    1
    84    63    65    2
    85    65    66    1
    86    65    67    1
    87    67    68    2
    88    67    83    1
    89    68    69    1
    90    68    70    1
    91    70    71    1
    92    74    81    1
    93    74   147    1
    94    83   164    1
    95    84    85    1
    96    84    86    2
    97    84    91    1
    98    86    87    1
    99    86    88    1
   100    88    89    2
   101    88   129    1
   102    89    90    1
   103    89   134    1
   104    90    91    2
   105    91    92    1
   106    93    94    1
   107    93    95    1
   108    93    96    1
   109    93   134    1
   110    96    97    2
   111    96   103    1
   112    97    98    1
   113    97    99    1
   114    99   100    1
   115    99   101    2
   116   101   102    1
   117   101   132    1
   118   103   104    1
   119   103   132    2
   120   105   106    1
   121   105   107    2
   122   105   112    1
   123   107   108    1
   124   107   109    1
   125   109   110    2
   126   109   126    1
   127   110   111    1
   128   110   135    1
   129   111   112    2
   130   111   129    1
   131   112   113    1
   132   114   115    1
   133   114   116    1
   134   114   117    1
   135   114   135    1
   136   117   118    2
   137   117   124    1
   138   118   119    1
   139   118   120    1
   140   120   121    1
   141   120   122    2
   142   122   123    1
   143   122   133    1
   144   124   125    1
   145   124   133    2
   146   126   127    1
   147   126   128    1
   148   129   130    1
   149   129   131    1
   150   132   166    1
   151   133   166    1
   152   136   137    1
   153   136   148   un
   154   136   149   un
   155   137   138    1
   156   137   145    2
   157   138   139    1
   158   138   140    2
   159   140   141    1
   160   140   142    1
   161   142   143    2
   162   142   147    1
   163   143   144    1
   164   143   145    1
   165   145   146    1
   166   147   150    1
   167   148   167    1
   168   149   167    1
   169   151   152    1
   170   151   162   un
   171   151   163   un
   172   152   153    1
   173   152   160    2
   174   153   154    1
   175   153   155    2
   176   155   156    1
   177   155   157    1
   178   157   158    2
   179   157   164    1
   180   158   159    1
   181   158   160    1
   182   160   161    1
   183   162   165    1
   184   163   165    1
   185   165   168    1
   186   165   169    1
   187   165   170    1
   188   165   171    1
   189    83    82    1
   190   164    82    1
@<TRIPOS>SUBSTRUCTURE
     1 RES1        1 GROUP             0 ****  ****    0  
     2 RES2      172 GROUP             0 ****  ****    0  
     3 RES3      173 GROUP             0 ****  ****    0  
     4 RES4      174 GROUP             0 ****  ****    0  
     5 RES5      175 GROUP             0 ****  ****    0  
     6 RES6      176 GROUP             0 ****  ****    0  
     7 RES7      177 GROUP             0 ****  ****    0  
     8 RES8      178 GROUP             0 ****  ****    0  
     9 RES9      179 GROUP             0 ****  ****    0  
@<TRIPOS>CRYSIN
   13.8290   24.5350   23.9880   90.0000   90.0000   90.0000    52     1
