####################################################################### 
# 
# This file contains crystal structure data downloaded from the 
# Cambridge Structural Database (CSD) hosted by the Cambridge 
# Crystallographic Data Centre (CCDC).
# 
# Full information about CCDC data access policies and citation 
# guidelines are available at http://www.ccdc.cam.ac.uk/access/V1 
# 
# Audit and citation data items may have been added by the CCDC. 
# Please retain this information to preserve the provenance of 
# this file and to allow appropriate attribution of the data. 
# 
#######################################################################
@<TRIPOS>MOLECULE
JUWHAN
    73    77     1     0     0
SMALL
NO_CHARGES
****
Generated from the CSD

@<TRIPOS>ATOM
     1 Zn1     -4.8151  24.0825   3.3746   Zn        1 RES1   0.0000
     2 C1      -6.8844  23.5970   1.6032   C.2       1 RES1   0.0000
     3 C2      -7.7223  23.9072   0.3906   C.2       1 RES1   0.0000
     4 C3      -9.0242  23.4258   0.3500   C.2       1 RES1   0.0000
     5 H3      -9.3552  22.9104   1.0489   H         1 RES1   0.0000
     6 C4      -9.8321  23.7219  -0.7494   C.2       1 RES1   0.0000
     7 H4     -10.7043  23.4005  -0.7900   H         1 RES1   0.0000
     8 C5      -9.3248  24.4937  -1.7817   C.2       1 RES1   0.0000
     9 H5      -9.8768  24.7273  -2.4928   H         1 RES1   0.0000
    10 C6      -8.0402  24.9137  -1.7693   C.2       1 RES1   0.0000
    11 C7      -7.2386  24.6521  -0.6628   C.2       1 RES1   0.0000
    12 H7      -6.3694  24.9824  -0.6337   H         1 RES1   0.0000
    13 C8      -7.4636  25.6889  -2.9217   C.2       1 RES1   0.0000
    14 C9      -3.4286  26.1467   1.7569   C.2       1 RES1   0.0000
    15 H9      -4.1947  26.0505   1.2387   H         1 RES1   0.0000
    16 C10     -2.4924  27.0388   1.3610   C.2       1 RES1   0.0000
    17 H10     -2.6247  27.5458   0.5934   H         1 RES1   0.0000
    18 C11     -1.3366  27.1937   2.1087   C.2       1 RES1   0.0000
    19 C12     -1.1866  26.4304   3.2417   C.2       1 RES1   0.0000
    20 H12     -0.4315  26.5120   3.7788   H         1 RES1   0.0000
    21 C13     -2.1689  25.5589   3.5492   C.2       1 RES1   0.0000
    22 H13     -2.0463  25.0291   4.3042   H         1 RES1   0.0000
    23 C14     -0.3135  28.2191   1.6650   C.3       1 RES1   0.0000
    24 H14A     0.0788  27.9559   0.8188   H         1 RES1   0.0000
    25 H14B    -0.7359  29.0851   1.5528   H         1 RES1   0.0000
    26 C15      1.6282  29.2388   2.4852   C.2       1 RES1   0.0000
    27 C16      2.6477  29.2222   3.5474   C.2       1 RES1   0.0000
    28 C17      2.6357  28.3356   4.5885   C.2       1 RES1   0.0000
    29 H17      1.9473  27.7156   4.6692   H         1 RES1   0.0000
    30 C18      3.6686  28.3710   5.5324   C.2       1 RES1   0.0000
    31 H18      3.6684  27.7764   6.2482   H         1 RES1   0.0000
    32 C19      4.6936  29.2962   5.3928   C.2       1 RES1   0.0000
    33 H19      5.3890  29.3087   6.0102   H         1 RES1   0.0000
    34 C20      4.6908  30.1858   4.3605   C.2       1 RES1   0.0000
    35 C21      3.6799  30.1517   3.4290   C.2       1 RES1   0.0000
    36 H21      3.6845  30.7513   2.7187   H         1 RES1   0.0000
    37 C22      7.5848  32.2096   4.7299   C.2       1 RES1   0.0000
    38 C23      7.5216  33.1114   3.8656   C.2       1 RES1   0.0000
    39 H23      6.8231  33.1051   3.2521   H         1 RES1   0.0000
    40 C24      8.5296  34.1850   3.8002   C.2       1 RES1   0.0000
    41 H24      8.4539  34.8752   3.1815   H         1 RES1   0.0000
    42 C25      9.5404  34.1391   4.6451   C.2       1 RES1   0.0000
    43 C26      9.6498  33.0979   5.4917   C.2       1 RES1   0.0000
    44 H26     10.4005  33.0296   6.0362   H         1 RES1   0.0000
    45 C27      8.6735  32.1255   5.5677   C.2       1 RES1   0.0000
    46 H27      8.7485  31.4280   6.1767   H         1 RES1   0.0000
    47 C28     11.4982  35.2047   5.3521   C.3       1 RES1   0.0000
    48 H28A    12.1258  34.5045   5.1114   H         1 RES1   0.0000
    49 H28B    11.2130  35.0560   6.2678   H         1 RES1   0.0000
    50 C29     12.1682  36.5744   5.2284   C.2       1 RES1   0.0000
    51 C30     13.4289  36.7780   5.7410   C.2       1 RES1   0.0000
    52 H30     13.9023  36.0672   6.1080   H         1 RES1   0.0000
    53 C31     13.9816  38.0205   5.7127   C.2       1 RES1   0.0000
    54 H31     14.8460  38.1298   6.0369   H         1 RES1   0.0000
    55 C32     12.1671  38.8551   4.7246   C.2       1 RES1   0.0000
    56 H32     11.7176  39.5805   4.3557   H         1 RES1   0.0000
    57 C33     11.5487  37.6187   4.6910   C.2       1 RES1   0.0000
    58 H33     10.7120  37.5201   4.2967   H         1 RES1   0.0000
    59 N1      -3.3049  25.3918   2.8616   N.2       1 RES1   0.0000
    60 N2       5.7009  31.1953   4.1378   N.2       1 RES1   0.0000
    61 N3       6.5815  31.1703   4.9191   N.2       1 RES1   0.0000
    62 N4      13.3506  39.0641   5.2496   N.2       1 RES1   0.0000
    63 O1      -7.2768  22.7910   2.4321   O.co2     1 RES1   0.0000
    64 O2      -5.7810  24.2283   1.6868   O.co2     1 RES1   0.0000
    65 O3      -6.3243  26.1302  -2.8749   O.co2     1 RES1   0.0000
    66 O4      -8.2048  25.7976  -3.9566   O.co2     1 RES1   0.0000
    67 O5       0.6969  28.2917   2.6760   O.3       1 RES1   0.0000
    68 O6       1.6333  29.9714   1.5784   O.2       1 RES1   0.0000
    69 O7      10.4215  35.1709   4.5178   O.3       1 RES1   0.0000
    70 Zn1     14.0990  40.9640   5.4631   Zn        1 RES1   0.0000
    71 Zn1     -7.2145  26.5620  -5.4631   Zn        1 RES1   0.0000
    72 N4      -4.0667  22.1826   3.5881   N.3       1 RES1   0.0000
    73 O4      -5.8054  24.8469   4.8811   O.3       1 RES1   0.0000
@<TRIPOS>BOND
     1     1    59    1
     2     1    64    1
     3     1    72    1
     4     1    73    1
     5     2     3    1
     6     2    63    2
     7     2    64    1
     8     3     4    1
     9     3    11    2
    10     4     5    1
    11     4     6    2
    12     6     7    1
    13     6     8    1
    14     8     9    1
    15     8    10    2
    16    10    11    1
    17    10    13    1
    18    11    12    1
    19    13    65    2
    20    13    66    1
    21    14    15    1
    22    14    16    1
    23    14    59    2
    24    16    17    1
    25    16    18    2
    26    18    19    1
    27    18    23    1
    28    19    20    1
    29    19    21    2
    30    21    22    1
    31    21    59    1
    32    23    24    1
    33    23    25    1
    34    23    67    1
    35    26    27    1
    36    26    67    1
    37    26    68    2
    38    27    28    2
    39    27    35    1
    40    28    29    1
    41    28    30    1
    42    30    31    1
    43    30    32    2
    44    32    33    1
    45    32    34    1
    46    34    35    2
    47    34    60    1
    48    35    36    1
    49    37    38    2
    50    37    45    1
    51    37    61    1
    52    38    39    1
    53    38    40    1
    54    40    41    1
    55    40    42    2
    56    42    43    1
    57    42    69    1
    58    43    44    1
    59    43    45    2
    60    45    46    1
    61    47    48    1
    62    47    49    1
    63    47    50    1
    64    47    69    1
    65    50    51    1
    66    50    57    2
    67    51    52    1
    68    51    53    2
    69    53    54    1
    70    53    62    1
    71    55    56    1
    72    55    57    1
    73    55    62    2
    74    57    58    1
    75    60    61    2
    76    62    70    1
    77    66    71    1
@<TRIPOS>SUBSTRUCTURE
     1 RES1        1 GROUP             0 ****  ****    0  
@<TRIPOS>CRYSIN
    6.8845   33.7630   17.7980   90.0000   96.7300   90.0000   231     1
