####################################################################### 
# 
# This file contains crystal structure data downloaded from the 
# Cambridge Structural Database (CSD) hosted by the Cambridge 
# Crystallographic Data Centre (CCDC).
# 
# Full information about CCDC data access policies and citation 
# guidelines are available at http://www.ccdc.cam.ac.uk/access/V1 
# 
# Audit and citation data items may have been added by the CCDC. 
# Please retain this information to preserve the provenance of 
# this file and to allow appropriate attribution of the data. 
# 
#######################################################################
@<TRIPOS>MOLECULE
UQIHEK
    44    48     1     0     0
SMALL
NO_CHARGES
****
Generated from the CSD

@<TRIPOS>ATOM
     1 C1       4.2630   7.4706   2.7104   C.2       1 RES1   0.0000
     2 C2       3.2922   6.5062   2.9189   C.2       1 RES1   0.0000
     3 H2       2.8789   6.1129   2.1845   H         1 RES1   0.0000
     4 C3       2.9176   6.1125   4.1968   C.2       1 RES1   0.0000
     5 C4       3.5698   6.6707   5.3144   C.2       1 RES1   0.0000
     6 H4       3.3161   6.4213   6.1741   H         1 RES1   0.0000
     7 C5       4.6007   7.6002   5.1272   C.2       1 RES1   0.0000
     8 C6       4.9315   8.0288   3.8578   C.2       1 RES1   0.0000
     9 H6       5.5869   8.6796   3.7429   H         1 RES1   0.0000
    10 C7       1.8526   5.1033   4.4110   C.2       1 RES1   0.0000
    11 C8       5.3253   8.1160   6.3427   C.2       1 RES1   0.0000
    12 C9      -2.1875   1.6396   1.7474   C.2       1 RES1   0.0000
    13 H17     -2.6279   2.4578   1.7184   H         1 RES1   0.0000
    14 C10     -2.9805   0.4336   1.7899   C.2       1 RES1   0.0000
    15 H18     -3.9097   0.4433   1.8422   H         1 RES1   0.0000
    16 C11     -2.2381  -0.7451   1.7474   C.2       1 RES1   0.0000
    17 H19     -2.6868  -1.5592   1.7219   H         1 RES1   0.0000
    18 C12     -0.8709  -0.7401   1.7417   C.2       1 RES1   0.0000
    19 H20     -0.3944  -1.5387   1.7311   H         1 RES1   0.0000
    20 C13     -0.2215   0.4585   1.7516   C.2       1 RES1   0.0000
    21 C14      1.2414   0.5382   1.7516   C.2       1 RES1   0.0000
    22 C15      2.0727  -0.6130   1.7530   C.2       1 RES1   0.0000
    23 H23      1.6774  -1.4548   1.7508   H         1 RES1   0.0000
    24 C16      3.4590  -0.5208   1.7573   C.2       1 RES1   0.0000
    25 H24      4.0010  -1.2764   1.7509   H         1 RES1   0.0000
    26 C17      3.9772   0.7376   1.7729   C.2       1 RES1   0.0000
    27 H25      4.9011   0.8471   1.7645   H         1 RES1   0.0000
    28 C18      3.1364   1.8988   1.8013   C.2       1 RES1   0.0000
    29 H26      3.5154   2.7476   1.8466   H         1 RES1   0.0000
    30 Cd1      0.3858   3.6080   1.6345   Cd        1 RES1   0.0000
    31 N1      -0.8627   1.6347   1.7488   N.2       1 RES1   0.0000
    32 N2       1.7992   1.7593   1.7616   N.2       1 RES1   0.0000
    33 N5       4.5870   7.9989   1.4325   N.pl3     1 RES1   0.0000
    34 H5B      5.4495   8.2662   1.3983   H         1 RES1   0.0000
    35 H6A      3.9266   7.7706   0.8934   H         1 RES1   0.0000
    36 O1       1.5094   4.3508   3.4635   O.co2     1 RES1   0.0000
    37 O2       1.3371   5.0161   5.5740   O.co2     1 RES1   0.0000
    38 O3       4.9411   7.7123   7.4589   O.co2     1 RES1   0.0000
    39 O4       6.2837   8.9009   6.1796   O.co2     1 RES1   0.0000
    40 Cd1     -0.3858   3.6080   5.4571   Cd        1 RES1   0.0000
    41 Cd1      6.4502   8.8513   8.7261   Cd        1 RES1   0.0000
    42 O2      -1.3371   5.0161   1.5176   O.3       1 RES1   0.0000
    43 O3       1.8950   4.7470   0.3673   O.3       1 RES1   0.0000
    44 O4       0.5524   3.5584  -0.9120   O.3       1 RES1   0.0000
@<TRIPOS>BOND
     1     1     2    2
     2     1     8    1
     3     1    33    1
     4     2     3    1
     5     2     4    1
     6     4     5    2
     7     4    10    1
     8     5     6    1
     9     5     7    1
    10     7     8    2
    11     7    11    1
    12     8     9    1
    13    10    36   un
    14    10    37   un
    15    11    38   un
    16    11    39   un
    17    12    13    1
    18    12    14    1
    19    12    31    2
    20    14    15    1
    21    14    16    2
    22    16    17    1
    23    16    18    1
    24    18    19    1
    25    18    20    2
    26    20    21    1
    27    20    31    1
    28    21    22    2
    29    21    32    1
    30    22    23    1
    31    22    24    1
    32    24    25    1
    33    24    26    2
    34    26    27    1
    35    26    28    1
    36    28    29    1
    37    28    32    2
    38    30    31    1
    39    30    32    1
    40    30    36    1
    41    30    42    1
    42    30    43    1
    43    30    44    1
    44    33    34    1
    45    33    35    1
    46    37    40    1
    47    38    41    1
    48    39    41    1
@<TRIPOS>SUBSTRUCTURE
     1 RES1        1 GROUP             0 ****  ****    0  
@<TRIPOS>CRYSIN
   13.6721   24.9186   14.1832   90.0000   90.0000   90.0000    20     1
