####################################################################### 
# 
# This file contains crystal structure data downloaded from the 
# Cambridge Structural Database (CSD) hosted by the Cambridge 
# Crystallographic Data Centre (CCDC).
# 
# Full information about CCDC data access policies and citation 
# guidelines are available at http://www.ccdc.cam.ac.uk/access/V1 
# 
# Audit and citation data items may have been added by the CCDC. 
# Please retain this information to preserve the provenance of 
# this file and to allow appropriate attribution of the data. 
# 
#######################################################################
@<TRIPOS>MOLECULE
WEFSUW01
    43    47     1     0     0
SMALL
NO_CHARGES
****
Generated from the CSD

@<TRIPOS>ATOM
     1 C1       8.8699   7.4066   9.1745   C.2       1 RES1   0.0000
     2 C2A     12.5332   4.2477   7.3986   C.2       1 RES1   0.0000
     3 C3      10.0472   6.3678   9.3676   C.2       1 RES1   0.0000
     4 C4      10.4797   6.0743  10.5511   C.2       1 RES1   0.0000
     5 H4      10.0990   6.4709  11.3006   H         1 RES1   0.0000
     6 C5      11.5496   5.1259  10.6992   C.2       1 RES1   0.0000
     7 C6      12.2251   4.5187   9.7193   C.2       1 RES1   0.0000
     8 H6      12.9200   3.9196   9.8689   H         1 RES1   0.0000
     9 C7      11.7941   4.8650   8.4935   C.2       1 RES1   0.0000
    10 C8      10.6479   5.7657   8.3375   C.2       1 RES1   0.0000
    11 H8      10.3225   5.9237   7.4814   H         1 RES1   0.0000
    12 C9       9.8635  11.1926  10.9372   C.2       1 RES1   0.0000
    13 H9      10.3547  10.4151  10.8037   H         1 RES1   0.0000
    14 C10     10.5306  12.4195  10.7812   C.2       1 RES1   0.0000
    15 H10     11.4339  12.4695  10.5648   H         1 RES1   0.0000
    16 C11      9.7448  13.5586  10.9756   C.2       1 RES1   0.0000
    17 H11     10.1245  14.4025  10.8883   H         1 RES1   0.0000
    18 C12      8.3357  13.4282  11.3115   C.2       1 RES1   0.0000
    19 H12      7.8286  14.1970  11.4398   H         1 RES1   0.0000
    20 C13      7.7124  12.1536  11.4516   C.2       1 RES1   0.0000
    21 C14      6.2073  11.9604  11.8232   C.2       1 RES1   0.0000
    22 C15      5.2264  13.0317  11.9779   C.2       1 RES1   0.0000
    23 H15      5.4867  13.9185  11.8661   H         1 RES1   0.0000
    24 C16      3.8612  12.7231  12.3006   C.2       1 RES1   0.0000
    25 H16      3.2680  13.4288  12.4326   H         1 RES1   0.0000
    26 C17      3.3976  11.4711  12.4222   C.2       1 RES1   0.0000
    27 H17      2.5042  11.2729  12.5923   H         1 RES1   0.0000
    28 C18      4.4364  10.4324  12.2622   C.2       1 RES1   0.0000
    29 H18      4.1760   9.5445  12.3598   H         1 RES1   0.0000
    30 N2       5.8031  10.6858  11.9687   N.2       1 RES1   0.0000
    31 N3       8.5067  11.0547  11.2797   N.2       1 RES1   0.0000
    32 O1       8.7173   8.3023   9.9455   O.co2     1 RES1   0.0000
    33 O2       8.1534   7.3012   8.2317   O.co2     1 RES1   0.0000
    34 O3      11.9580   4.3933   6.3248   O.co2     1 RES1   0.0000
    35 O4      13.7275   3.6907   7.5494   O.co2     1 RES1   0.0000
    36 O5      11.8831   4.7822  11.9607   O.3       1 RES1   0.0000
    37 H5      12.5918   4.3689  11.9538   H         1 RES1   0.0000
    38 Cd1      7.4990   9.0043  11.6984   Cd        1 RES1   0.0000
    39 O2       5.9797   7.3012  11.6037   O.3       1 RES1   0.0000
    40 O3       9.2416   8.1517  12.9366   O.3       1 RES1   0.0000
    41 O4       7.4722   8.8543  14.1612   O.3       1 RES1   0.0000
    42 Cd1     13.7006   3.5407   5.0866   Cd        1 RES1   0.0000
    43 Cd1      6.6341   9.0043   8.1370   Cd        1 RES1   0.0000
@<TRIPOS>BOND
     1     1     3    1
     2     1    32   un
     3     1    33   un
     4     2     9    1
     5     2    34   un
     6     2    35   un
     7     3     4    2
     8     3    10    1
     9     4     5    1
    10     4     6    1
    11     6     7    2
    12     6    36    1
    13     7     8    1
    14     7     9    1
    15     9    10    2
    16    10    11    1
    17    12    13    1
    18    12    14    1
    19    12    31    2
    20    14    15    1
    21    14    16    2
    22    16    17    1
    23    16    18    1
    24    18    19    1
    25    18    20    2
    26    20    21    1
    27    20    31    1
    28    21    22    2
    29    21    30    1
    30    22    23    1
    31    22    24    1
    32    24    25    1
    33    24    26    2
    34    26    27    1
    35    26    28    1
    36    28    29    1
    37    28    30    2
    38    30    38    1
    39    31    38    1
    40    32    38    1
    41    33    43    1
    42    34    42    1
    43    35    42    1
    44    36    37    1
    45    38    39    1
    46    38    40    1
    47    38    41    1
@<TRIPOS>SUBSTRUCTURE
     1 RES1        1 GROUP             0 ****  ****    0  
@<TRIPOS>CRYSIN
   14.1331   25.0900   13.2236   90.0000   90.0000   90.0000    60     1
