####################################################################### 
# 
# This file contains crystal structure data downloaded from the 
# Cambridge Structural Database (CSD) hosted by the Cambridge 
# Crystallographic Data Centre (CCDC).
# 
# Full information about CCDC data access policies and citation 
# guidelines are available at http://www.ccdc.cam.ac.uk/access/V1 
# 
# Audit and citation data items may have been added by the CCDC. 
# Please retain this information to preserve the provenance of 
# this file and to allow appropriate attribution of the data. 
# 
#######################################################################
@<TRIPOS>MOLECULE
EHIWIE
   116   133     1     0     0
SMALL
USER_CHARGES
****
Generated from the CSD

@<TRIPOS>ATOM
     1 In1     12.0224  19.7930  14.0595   In        1 RES1   0.0000
     2 C1      14.6410  19.5092  12.6470   C.2       1 RES1   0.0000
     3 C2      13.8701  18.2618  12.1857   C.2       1 RES1   0.0000
     4 C3      11.2934  21.8007  15.7397   C.2       1 RES1   0.0000
     5 C4      11.0961  22.9995  16.6593   C.2       1 RES1   0.0000
     6 C5       9.9580  23.3182  17.2572   C.2       1 RES1   0.0000
     7 H5       9.1819  22.8469  17.0568   H         1 RES1   0.0000
     8 C6       9.9276  24.2742  18.1131   C.2       1 RES1   0.0000
     9 H6       9.1240  24.4327  18.5539   H         1 RES1   0.0000
    10 C7      10.9899  25.0785  18.4227   C.2       1 RES1   0.0000
    11 C8      12.2251  24.7174  17.9189   C.2       1 RES1   0.0000
    12 H8      13.0000  25.1679  18.1671   H         1 RES1   0.0000
    13 C9      12.2676  23.6126  16.9932   C.2       1 RES1   0.0000
    14 H9      13.0758  23.3239  16.6319   H         1 RES1   0.0000
    15 C10     10.8806  20.8234  11.8002   C.2       1 RES1   0.0000
    16 C11     10.0642  21.2969  10.6014   C.2       1 RES1   0.0000
    17 C12     10.7319  21.7552   9.4784   C.2       1 RES1   0.0000
    18 H12     11.6608  21.7681   9.4531   H         1 RES1   0.0000
    19 C13     10.0005  22.1861   8.4071   C.2       1 RES1   0.0000
    20 H13     10.4315  22.5288   7.6576   H         1 RES1   0.0000
    21 C14      8.5983  22.1103   8.4313   C.2       1 RES1   0.0000
    22 C15      7.9852  21.6368   9.5573   C.2       1 RES1   0.0000
    23 H15      7.0569  21.6062   9.5862   H         1 RES1   0.0000
    24 C16      8.7257  21.1937  10.6924   C.2       1 RES1   0.0000
    25 H16      8.3065  20.8539  11.4506   H         1 RES1   0.0000
    26 N1      10.9565  26.1317  19.3939   N.pl3     1 RES1   0.0000
    27 N2       7.8365  22.5139   7.3387   N.pl3     1 RES1   0.0000
    28 O1      14.1676  20.2194  13.6061   O.co2     1 RES1  -1.0000
    29 O2      15.7306  19.7581  12.1189   O.co2     1 RES1   0.0000
    30 O3      12.7836  18.1192  12.7866   O.co2     1 RES1   0.0000
    31 O4      14.4225  17.5243  11.4421   O.co2     1 RES1   0.0000
    32 O5      12.2767  21.6489  15.0265   O.co2     1 RES1   0.0000
    33 O6      10.4254  20.9509  15.7154   O.co2     1 RES1   0.0000
    34 O7      12.1432  20.9782  11.8549   O.co2     1 RES1   0.0000
    35 O8      10.3191  20.2650  12.7047   O.co2     1 RES1   0.0000
    36 C3      14.6107  26.4686  23.7249   C.2       1 RES1   0.0000
    37 C4      13.6911  26.2713  22.5261   C.2       1 RES1   0.0000
    38 C5      13.0932  25.1332  22.2074   C.2       1 RES1   0.0000
    39 H5      13.2936  24.3571  22.6787   H         1 RES1   0.0000
    40 C6      12.2373  25.1028  21.2514   C.2       1 RES1   0.0000
    41 H6      11.7965  24.2992  21.0929   H         1 RES1   0.0000
    42 C7      11.9277  26.1651  20.4471   C.2       1 RES1   0.0000
    43 C8      12.4315  27.4003  20.8082   C.2       1 RES1   0.0000
    44 H8      12.1833  28.1752  20.3577   H         1 RES1   0.0000
    45 C9      13.3572  27.4428  21.9130   C.2       1 RES1   0.0000
    46 H9      13.7185  28.2510  22.2017   H         1 RES1   0.0000
    47 O5      15.3239  27.4519  23.8767   O.co2     1 RES1   0.0000
    48 O6      14.6350  25.6006  24.5747   O.co2     1 RES1   0.0000
    49 C3       6.6255  29.7859  19.0570   C.2       1 RES1   0.0000
    50 C4       7.8243  28.8663  19.2543   C.2       1 RES1   0.0000
    51 C5       8.1430  28.2684  20.3924   C.2       1 RES1   0.0000
    52 H5       7.6717  28.4688  21.1685   H         1 RES1   0.0000
    53 C6       9.0990  27.4125  20.4228   C.2       1 RES1   0.0000
    54 H6       9.2575  26.9717  21.2264   H         1 RES1   0.0000
    55 C7       9.9033  27.1029  19.3605   C.2       1 RES1   0.0000
    56 C8       9.5422  27.6067  18.1253   C.2       1 RES1   0.0000
    57 H8       9.9927  27.3585  17.3504   H         1 RES1   0.0000
    58 C9       8.4374  28.5324  18.0828   C.2       1 RES1   0.0000
    59 H9       8.1487  28.8937  17.2746   H         1 RES1   0.0000
    60 O5       6.4737  30.4991  18.0737   O.co2     1 RES1   0.0000
    61 O6       5.7757  29.8102  19.9250   O.co2     1 RES1   0.0000
    62 C10      3.3750  19.4698   5.6482   C.2       1 RES1   0.0000
    63 C11      4.5738  20.2862   6.1217   C.2       1 RES1   0.0000
    64 C12      5.6968  19.6185   6.5800   C.2       1 RES1   0.0000
    65 H12      5.7221  18.6896   6.5929   H         1 RES1   0.0000
    66 C13      6.7681  20.3499   7.0109   C.2       1 RES1   0.0000
    67 H13      7.5176  19.9189   7.3536   H         1 RES1   0.0000
    68 C14      6.7439  21.7521   6.9351   C.2       1 RES1   0.0000
    69 C15      5.6179  22.3652   6.4616   C.2       1 RES1   0.0000
    70 H15      5.5890  23.2935   6.4310   H         1 RES1   0.0000
    71 C16      4.4828  21.6247   6.0185   C.2       1 RES1   0.0000
    72 H16      3.7246  22.0439   5.6787   H         1 RES1   0.0000
    73 O7       3.3203  18.2072   5.8030   O.co2     1 RES1   0.0000
    74 O8       2.4705  20.0313   5.0898   O.co2     1 RES1   0.0000
    75 C10      9.5270  26.9754   4.2946   C.2       1 RES1   0.0000
    76 C11      9.0535  25.7766   5.1110   C.2       1 RES1   0.0000
    77 C12      8.5952  24.6536   4.4433   C.2       1 RES1   0.0000
    78 H12      8.5823  24.6283   3.5144   H         1 RES1   0.0000
    79 C13      8.1643  23.5823   5.1747   C.2       1 RES1   0.0000
    80 H13      7.8216  22.8328   4.7437   H         1 RES1   0.0000
    81 C14      8.2401  23.6065   6.5769   C.2       1 RES1   0.0000
    82 C15      8.7136  24.7325   7.1900   C.2       1 RES1   0.0000
    83 H15      8.7442  24.7614   8.1183   H         1 RES1   0.0000
    84 C16      9.1567  25.8676   6.4495   C.2       1 RES1   0.0000
    85 H16      9.4965  26.6258   6.8687   H         1 RES1   0.0000
    86 O7       9.3722  27.0301   3.0320   O.co2     1 RES1   0.0000
    87 O8      10.0854  27.8799   4.8561   O.co2     1 RES1   0.0000
    88 In1      1.1157  18.3280   4.6178   In        1 RES1   0.0000
    89 C1       2.5282  15.7094   4.3340   C.2       1 RES1   0.0000
    90 C2       2.9895  16.4803   3.0866   C.2       1 RES1   0.0000
    91 O1       1.5691  16.1828   5.0442   O.co2     1 RES1  -1.0000
    92 O2       3.0563  14.6198   4.5829   O.co2     1 RES1   0.0000
    93 O3       2.3886  17.5668   2.9440   O.co2     1 RES1   0.0000
    94 O4       3.7331  15.9279   2.3491   O.co2     1 RES1   0.0000
    95 In1     10.5574  29.2347   3.1528   In        1 RES1   0.0000
    96 C1      10.8412  27.8222   0.5342   C.2       1 RES1   0.0000
    97 C2      12.0886  27.3609   1.3051   C.2       1 RES1   0.0000
    98 O1      10.1310  28.7813   1.0076   O.co2     1 RES1   0.0000
    99 O2      10.5923  27.2941  -0.5554   O.co2     1 RES1  -1.0000
   100 O3      12.2312  27.9618   2.3916   O.co2     1 RES1   0.0000
   101 O4      12.8261  26.6173   0.7527   O.co2     1 RES1   0.0000
   102 In1     16.2909  27.1976  25.7326   In        1 RES1   0.0000
   103 In1      4.6178  31.4661  18.3280   In        1 RES1   0.0000
   104 In1     12.0224  25.7326  -1.1157   In        1 RES1   0.0000
   105 In1     16.2909  18.3280  10.5574   In        1 RES1   0.0000
   106 In1      4.6178  14.0595   3.1528   In        1 RES1   0.0000
   107 O2       0.5554  19.7581   3.0563   O.3       1 RES1   0.0000
   108 O2      12.1189  29.7950   4.5829   O.3       1 RES1   0.0000
   109 O2      10.5923  18.2315  14.6198   O.3       1 RES1   0.0000
   110 O4      -0.7527  17.5243   3.7331   O.3       1 RES1   0.0000
   111 O4      11.4421  31.1031   2.3491   O.3       1 RES1   0.0000
   112 O4      12.8261  18.9083  15.9279   O.3       1 RES1   0.0000
   113 O5       0.1487  18.0737   6.4737   O.3       1 RES1   0.0000
   114 O5       8.7015  30.2017   2.8985   O.3       1 RES1   0.0000
   115 O6      -0.5402  19.9250   5.7757   O.3       1 RES1   0.0000
   116 O6       9.3995  30.8906   4.7498   O.3       1 RES1   0.0000
@<TRIPOS>BOND
     1     1    28    1
     2     1    30    1
     3     1    32    1
     4     1    33    1
     5     1    34    1
     6     1    35    1
     7     1   109    1
     8     1   112    1
     9     2     3    1
    10     2    28   un
    11     2    29   un
    12     3    30   un
    13     3    31   un
    14     4     5    1
    15     4    32   un
    16     4    33   un
    17     5     6    1
    18     5    13    2
    19     6     7    1
    20     6     8    2
    21     8     9    1
    22     8    10    1
    23    10    11    2
    24    10    26    1
    25    11    12    1
    26    11    13    1
    27    13    14    1
    28    15    16    1
    29    15    34   un
    30    15    35   un
    31    16    17    1
    32    16    24    2
    33    17    18    1
    34    17    19    2
    35    19    20    1
    36    19    21    1
    37    21    22    2
    38    21    27    1
    39    22    23    1
    40    22    24    1
    41    24    25    1
    42    26    42    1
    43    26    55    1
    44    27    68    1
    45    27    81    1
    46    29   105    1
    47    31   105    1
    48    36    37    1
    49    36    47   un
    50    36    48   un
    51    37    38    1
    52    37    45    2
    53    38    39    1
    54    38    40    2
    55    40    41    1
    56    40    42    1
    57    42    43    2
    58    43    44    1
    59    43    45    1
    60    45    46    1
    61    47   102    1
    62    48   102    1
    63    49    50    1
    64    49    60   un
    65    49    61   un
    66    50    51    1
    67    50    58    2
    68    51    52    1
    69    51    53    2
    70    53    54    1
    71    53    55    1
    72    55    56    2
    73    56    57    1
    74    56    58    1
    75    58    59    1
    76    60   103    1
    77    61   103    1
    78    62    63    1
    79    62    73   un
    80    62    74   un
    81    63    64    1
    82    63    71    2
    83    64    65    1
    84    64    66    2
    85    66    67    1
    86    66    68    1
    87    68    69    2
    88    69    70    1
    89    69    71    1
    90    71    72    1
    91    73    88    1
    92    74    88    1
    93    75    76    1
    94    75    86   un
    95    75    87   un
    96    76    77    1
    97    76    84    2
    98    77    78    1
    99    77    79    2
   100    79    80    1
   101    79    81    1
   102    81    82    2
   103    82    83    1
   104    82    84    1
   105    84    85    1
   106    86    95    1
   107    87    95    1
   108    88    91    1
   109    88    93    1
   110    88   107    1
   111    88   110    1
   112    88   113    1
   113    88   115    1
   114    89    90    1
   115    89    91   un
   116    89    92   un
   117    90    93   un
   118    90    94   un
   119    92   106    1
   120    94   106    1
   121    95    98    1
   122    95   100    1
   123    95   108    1
   124    95   111    1
   125    95   114    1
   126    95   116    1
   127    96    97    1
   128    96    98   un
   129    96    99   un
   130    97   100   un
   131    97   101   un
   132    99   104    1
   133   101   104    1
@<TRIPOS>SUBSTRUCTURE
     1 RES1        1 GROUP             0 ****  ****    0  
@<TRIPOS>CRYSIN
   30.3504   30.3504   30.3504   90.0000   90.0000   90.0000   205     1
