####################################################################### 
# 
# This file contains crystal structure data downloaded from the 
# Cambridge Structural Database (CSD) hosted by the Cambridge 
# Crystallographic Data Centre (CCDC).
# 
# Full information about CCDC data access policies and citation 
# guidelines are available at http://www.ccdc.cam.ac.uk/access/V1 
# 
# Audit and citation data items may have been added by the CCDC. 
# Please retain this information to preserve the provenance of 
# this file and to allow appropriate attribution of the data. 
# 
#######################################################################
@<TRIPOS>MOLECULE
EHIWOK
   176   199     1     0     0
SMALL
USER_CHARGES
****
Generated from the CSD

@<TRIPOS>ATOM
     1 In1     25.2094  21.8687   3.1721   In        1 RES1   0.0000
     2 C1      27.3359  20.2681   3.9728   C.2       1 RES1   0.0000
     3 C11     34.0164  15.4009   5.7697   C.2       1 RES1   0.0000
     4 C12     33.7197  15.7553   4.4550   C.2       1 RES1   0.0000
     5 H12     34.2700  15.4690   3.7627   H         1 RES1   0.0000
     6 C13     32.6069  16.5384   4.1830   C.2       1 RES1   0.0000
     7 H13     32.4097  16.7779   3.3065   H         1 RES1   0.0000
     8 C8      31.7868  16.9670   5.2216   C.2       1 RES1   0.0000
     9 C9      32.0835  16.6126   6.5321   C.2       1 RES1   0.0000
    10 H9      31.5331  16.8982   7.2262   H         1 RES1   0.0000
    11 C10     33.1963  15.8295   6.8041   C.2       1 RES1   0.0000
    12 H10     33.3934  15.5893   7.6824   H         1 RES1   0.0000
    13 C15     26.7713  25.2959   5.1020   C.2       1 RES1   0.0000
    14 C16     27.6739  26.1284   4.4509   C.2       1 RES1   0.0000
    15 H16     27.9247  25.9465   3.5732   H         1 RES1   0.0000
    16 C17     28.1973  27.2370   5.1062   C.2       1 RES1   0.0000
    17 H17     28.8003  27.7931   4.6713   H         1 RES1   0.0000
    18 C18     27.8222  27.5090   6.4167   C.2       1 RES1   0.0000
    19 C19     26.9197  26.6765   7.0679   C.2       1 RES1   0.0000
    20 H19     26.6666  26.8580   7.9453   H         1 RES1   0.0000
    21 C20     26.3922  25.5679   6.4126   C.2       1 RES1   0.0000
    22 H20     25.7910  25.0113   6.8473   H         1 RES1   0.0000
    23 C5      30.6576  17.8242   4.8424   C.2       1 RES1   0.0000
    24 C6      30.6123  18.5825   3.6761   C.2       1 RES1   0.0000
    25 H6      31.3225  18.5604   3.0798   H         1 RES1   0.0000
    26 C7      29.4995  19.3738   3.4082   C.2       1 RES1   0.0000
    27 H7      29.4692  19.8809   2.6283   H         1 RES1   0.0000
    28 C2      28.4363  19.4067   4.3025   C.2       1 RES1   0.0000
    29 C3      28.4857  18.6526   5.4647   C.2       1 RES1   0.0000
    30 H3      27.7721  18.6740   6.0648   H         1 RES1   0.0000
    31 C4      29.5943  17.8613   5.7367   C.2       1 RES1   0.0000
    32 H4      29.6253  17.3535   6.5164   H         1 RES1   0.0000
    33 C14     26.2809  24.1708   4.4220   C.2       1 RES1   0.0000
    34 C24     29.4130  30.7936   8.5762   C.2       1 RES1   0.0000
    35 C25     28.9762  29.6809   9.2851   C.2       1 RES1   0.0000
    36 H25     29.0276  29.6700  10.2120   H         1 RES1   0.0000
    37 C26     28.4651  28.5805   8.6051   C.2       1 RES1   0.0000
    38 H26     28.1719  27.8366   9.0769   H         1 RES1   0.0000
    39 C21     28.3868  28.5970   7.2162   C.2       1 RES1   0.0000
    40 C22     28.8237  29.7097   6.5074   C.2       1 RES1   0.0000
    41 H22     28.7749  29.7207   5.5792   H         1 RES1   0.0000
    42 C23     29.3388  30.8101   7.1874   C.2       1 RES1   0.0000
    43 H23     29.6306  31.5541   6.7143   H         1 RES1   0.0000
    44 C27     23.0416  20.0579   4.3314   C.2       1 RES1   0.0000
    45 C28     23.5815  19.4892   3.0538   C.2       1 RES1   0.0000
    46 N1      35.1497  14.5437   6.0623   N.pl3     1 RES1   0.0000
    47 N2      29.8251  31.9929   9.2191   N.pl3     1 RES1   0.0000
    48 O1      27.1299  20.8656   2.9590   O.co2     1 RES1   0.0000
    49 O2      26.2891  20.3340   4.7229   O.co2     1 RES1   0.0000
    50 O3      25.4773  23.3466   4.7435   O.co2     1 RES1   0.0000
    51 O4      26.4787  23.8741   3.2228   O.co2     1 RES1   0.0000
    52 O5      23.5156  21.2571   4.4962   O.co2     1 RES1   0.0000
    53 O6      22.1803  19.5963   5.0073   O.co2     1 RES1   0.0000
    54 O7      24.4057  19.9507   2.3491   O.co2     1 RES1  -1.0000
    55 O8      23.1241  18.2239   2.9920   O.co2     1 RES1   0.0000
    56 C1      37.2392   6.7299   0.3379   C.2       1 RES1   0.0000
    57 C11     35.4423  13.4104   5.2051   C.2       1 RES1   0.0000
    58 C12     36.7570  13.1137   4.8507   C.2       1 RES1   0.0000
    59 H12     37.4493  13.6640   5.1370   H         1 RES1   0.0000
    60 C13     37.0290  12.0009   4.0676   C.2       1 RES1   0.0000
    61 H13     37.9055  11.8037   3.8281   H         1 RES1   0.0000
    62 C8      35.9904  11.1808   3.6390   C.2       1 RES1   0.0000
    63 C9      34.6799  11.4775   3.9934   C.2       1 RES1   0.0000
    64 H9      33.9858  10.9271   3.7078   H         1 RES1   0.0000
    65 C10     34.4079  12.5903   4.7765   C.2       1 RES1   0.0000
    66 H10     33.5296  12.7874   5.0167   H         1 RES1   0.0000
    67 C5      36.3696  10.0516   2.7818   C.2       1 RES1   0.0000
    68 C6      37.5359  10.0063   2.0235   C.2       1 RES1   0.0000
    69 H6      38.1322  10.7165   2.0456   H         1 RES1   0.0000
    70 C7      37.8038   8.8935   1.2322   C.2       1 RES1   0.0000
    71 H7      38.5837   8.8632   0.7251   H         1 RES1   0.0000
    72 C2      36.9095   7.8303   1.1993   C.2       1 RES1   0.0000
    73 C3      35.7473   7.8797   1.9534   C.2       1 RES1   0.0000
    74 H3      35.1472   7.1661   1.9320   H         1 RES1   0.0000
    75 C4      35.4753   8.9883   2.7447   C.2       1 RES1   0.0000
    76 H4      34.6956   9.0193   3.2525   H         1 RES1   0.0000
    77 O1      38.2530   6.5239  -0.2596   O.co2     1 RES1   0.0000
    78 O2      36.4891   5.6831   0.2720   O.co2     1 RES1   0.0000
    79 C1      40.8741  16.6332  13.8761   C.2       1 RES1   0.0000
    80 C11     36.0069  14.8363   7.1956   C.2       1 RES1   0.0000
    81 C12     36.3613  16.1510   7.4923   C.2       1 RES1   0.0000
    82 H12     36.0750  16.8433   6.9420   H         1 RES1   0.0000
    83 C13     37.1444  16.4230   8.6051   C.2       1 RES1   0.0000
    84 H13     37.3839  17.2995   8.8023   H         1 RES1   0.0000
    85 C8      37.5730  15.3844   9.4252   C.2       1 RES1   0.0000
    86 C9      37.2186  14.0739   9.1285   C.2       1 RES1   0.0000
    87 H9      37.5042  13.3798   9.6789   H         1 RES1   0.0000
    88 C10     36.4355  13.8019   8.0157   C.2       1 RES1   0.0000
    89 H10     36.1953  12.9236   7.8186   H         1 RES1   0.0000
    90 C5      38.4302  15.7636  10.5544   C.2       1 RES1   0.0000
    91 C6      39.1885  16.9299  10.5997   C.2       1 RES1   0.0000
    92 H6      39.1664  17.5262   9.8895   H         1 RES1   0.0000
    93 C7      39.9798  17.1978  11.7125   C.2       1 RES1   0.0000
    94 H7      40.4869  17.9777  11.7428   H         1 RES1   0.0000
    95 C2      40.0127  16.3035  12.7757   C.2       1 RES1   0.0000
    96 C3      39.2586  15.1413  12.7263   C.2       1 RES1   0.0000
    97 H3      39.2800  14.5412  13.4399   H         1 RES1   0.0000
    98 C4      38.4673  14.8693  11.6177   C.2       1 RES1   0.0000
    99 H4      37.9595  14.0896  11.5867   H         1 RES1   0.0000
   100 O1      41.4716  17.6470  14.0821   O.co2     1 RES1   0.0000
   101 O2      40.9400  15.8831  14.9229   O.co2     1 RES1   0.0000
   102 C15     25.7080  35.0467  15.9161   C.2       1 RES1   0.0000
   103 C16     25.0569  34.1441  15.0836   C.2       1 RES1   0.0000
   104 H16     24.1792  33.8933  15.2655   H         1 RES1   0.0000
   105 C17     25.7122  33.6207  13.9750   C.2       1 RES1   0.0000
   106 H17     25.2773  33.0177  13.4189   H         1 RES1   0.0000
   107 C18     27.0227  33.9958  13.7030   C.2       1 RES1   0.0000
   108 C19     27.6739  34.8983  14.5355   C.2       1 RES1   0.0000
   109 H19     28.5513  35.1514  14.3540   H         1 RES1   0.0000
   110 C20     27.0186  35.4258  15.6441   C.2       1 RES1   0.0000
   111 H20     27.4533  36.0270  16.2007   H         1 RES1   0.0000
   112 C14     25.0280  35.5371  17.0412   C.2       1 RES1   0.0000
   113 C24     29.1822  32.4050  10.4184   C.2       1 RES1   0.0000
   114 C25     29.8911  32.8418  11.5311   C.2       1 RES1   0.0000
   115 H25     30.8180  32.7904  11.5420   H         1 RES1   0.0000
   116 C26     29.2111  33.3529  12.6315   C.2       1 RES1   0.0000
   117 H26     29.6829  33.6461  13.3754   H         1 RES1   0.0000
   118 C21     27.8222  33.4312  12.6150   C.2       1 RES1   0.0000
   119 C22     27.1134  32.9943  11.5023   C.2       1 RES1   0.0000
   120 H22     26.1852  33.0431  11.4913   H         1 RES1   0.0000
   121 C23     27.7934  32.4792  10.4019   C.2       1 RES1   0.0000
   122 H23     27.3203  32.1874   9.6579   H         1 RES1   0.0000
   123 O3      25.3495  36.3407  17.8654   O.co2     1 RES1   0.0000
   124 O4      23.8288  35.3393  17.3379   O.co2     1 RES1   0.0000
   125 C15     36.5221  36.1100   6.1653   C.2       1 RES1   0.0000
   126 C16     35.6896  36.7611   7.0679   C.2       1 RES1   0.0000
   127 H16     35.8715  37.6388   7.3187   H         1 RES1   0.0000
   128 C17     34.5810  36.1058   7.5913   C.2       1 RES1   0.0000
   129 H17     34.0249  36.5407   8.1943   H         1 RES1   0.0000
   130 C18     34.3090  34.7953   7.2162   C.2       1 RES1   0.0000
   131 C19     35.1415  34.1441   6.3137   C.2       1 RES1   0.0000
   132 H19     34.9600  33.2667   6.0606   H         1 RES1   0.0000
   133 C20     36.2501  34.7994   5.7862   C.2       1 RES1   0.0000
   134 H20     36.8067  34.3647   5.1850   H         1 RES1   0.0000
   135 C14     37.6472  36.7900   5.6749   C.2       1 RES1   0.0000
   136 C24     31.0244  32.6358   8.8070   C.2       1 RES1   0.0000
   137 C25     32.1371  31.9269   8.3702   C.2       1 RES1   0.0000
   138 H25     32.1480  31.0000   8.4216   H         1 RES1   0.0000
   139 C26     33.2375  32.6069   7.8591   C.2       1 RES1   0.0000
   140 H26     33.9814  32.1351   7.5659   H         1 RES1   0.0000
   141 C21     33.2210  33.9958   7.7808   C.2       1 RES1   0.0000
   142 C22     32.1083  34.7046   8.2177   C.2       1 RES1   0.0000
   143 H22     32.0973  35.6328   8.1689   H         1 RES1   0.0000
   144 C23     31.0079  34.0246   8.7328   C.2       1 RES1   0.0000
   145 H23     30.2639  34.4977   9.0246   H         1 RES1   0.0000
   146 O3      38.4714  36.4685   4.8713   O.co2     1 RES1   0.0000
   147 O4      37.9439  37.9892   5.8727   O.co2     1 RES1   0.0000
   148 In1     23.7781  36.6086  19.3433   In        1 RES1   0.0000
   149 C27     24.9374  38.7764  21.1541   C.2       1 RES1   0.0000
   150 C28     23.6598  38.2365  21.7228   C.2       1 RES1   0.0000
   151 O5      25.1022  38.3024  19.9549   O.co2     1 RES1   0.0000
   152 O6      25.6133  39.6377  21.6157   O.co2     1 RES1   0.0000
   153 O7      22.9551  37.4123  21.2613   O.co2     1 RES1  -1.0000
   154 O8      23.5980  38.6939  22.9881   O.co2     1 RES1   0.0000
   155 In1     39.9493  38.0399   4.6034   In        1 RES1   0.0000
   156 C27     41.7601  36.8806   2.4356   C.2       1 RES1   0.0000
   157 C28     42.3288  38.1582   2.9755   C.2       1 RES1   0.0000
   158 O5      40.5609  36.7158   2.9096   O.co2     1 RES1   0.0000
   159 O6      42.2217  36.2047   1.5743   O.co2     1 RES1  -1.0000
   160 O7      41.8673  38.8629   3.7997   O.co2     1 RES1   0.0000
   161 O8      43.5941  38.2200   2.5181   O.co2     1 RES1   0.0000
   162 In1     38.0399   4.6034  -1.2627   In        1 RES1   0.0000
   163 In1     42.4747  17.4339  16.0026   In        1 RES1   0.0000
   164 In1     25.2094  39.9493  23.7781   In        1 RES1   0.0000
   165 In1     44.3841  36.6086   1.2627   In        1 RES1   0.0000
   166 In1     21.8687  17.4339   4.6034   In        1 RES1   0.0000
   167 O1      23.5650  34.6881  20.3464   O.3       1 RES1   0.0000
   168 O1      40.9524  38.2530   6.5239   O.3       1 RES1   0.0000
   169 O2      25.3289  35.5289  20.8780   O.3       1 RES1   0.0000
   170 O2      41.4840  36.4891   5.6831   O.3       1 RES1   0.0000
   171 O6      39.6377  40.2023   5.0073   O.3       1 RES1   0.0000
   172 O6      25.6133  22.1803   1.0097   O.3       1 RES1   0.0000
   173 O6      21.6157  36.2047  19.0317   O.3       1 RES1   0.0000
   174 O8      38.6939  38.8299   2.9920   O.3       1 RES1   0.0000
   175 O8      23.5980  23.1241   2.3821   O.3       1 RES1   0.0000
   176 O8      22.9881  38.2200  18.0879   O.3       1 RES1   0.0000
@<TRIPOS>BOND
     1     1    48    1
     2     1    49    1
     3     1    50    1
     4     1    51    1
     5     1    52    1
     6     1    54    1
     7     1   172    1
     8     1   175    1
     9     2    28    1
    10     2    48   un
    11     2    49   un
    12     3     4    1
    13     3    11    2
    14     3    46    1
    15     4     5    1
    16     4     6    2
    17     6     7    1
    18     6     8    1
    19     8     9    2
    20     8    23    1
    21     9    10    1
    22     9    11    1
    23    11    12    1
    24    13    14    1
    25    13    21    2
    26    13    33    1
    27    14    15    1
    28    14    16    2
    29    16    17    1
    30    16    18    1
    31    18    19    2
    32    18    39    1
    33    19    20    1
    34    19    21    1
    35    21    22    1
    36    23    24    1
    37    23    31    2
    38    24    25    1
    39    24    26    2
    40    26    27    1
    41    26    28    1
    42    28    29    2
    43    29    30    1
    44    29    31    1
    45    31    32    1
    46    33    50   un
    47    33    51   un
    48    34    35    1
    49    34    42    2
    50    34    47    1
    51    35    36    1
    52    35    37    2
    53    37    38    1
    54    37    39    1
    55    39    40    2
    56    40    41    1
    57    40    42    1
    58    42    43    1
    59    44    45    1
    60    44    52   un
    61    44    53   un
    62    45    54   un
    63    45    55   un
    64    46    57    1
    65    46    80    1
    66    47   113    1
    67    47   136    1
    68    53   166    1
    69    55   166    1
    70    56    72    1
    71    56    77   un
    72    56    78   un
    73    57    58    1
    74    57    65    2
    75    58    59    1
    76    58    60    2
    77    60    61    1
    78    60    62    1
    79    62    63    2
    80    62    67    1
    81    63    64    1
    82    63    65    1
    83    65    66    1
    84    67    68    1
    85    67    75    2
    86    68    69    1
    87    68    70    2
    88    70    71    1
    89    70    72    1
    90    72    73    2
    91    73    74    1
    92    73    75    1
    93    75    76    1
    94    77   162    1
    95    78   162    1
    96    79    95    1
    97    79   100   un
    98    79   101   un
    99    80    81    1
   100    80    88    2
   101    81    82    1
   102    81    83    2
   103    83    84    1
   104    83    85    1
   105    85    86    2
   106    85    90    1
   107    86    87    1
   108    86    88    1
   109    88    89    1
   110    90    91    1
   111    90    98    2
   112    91    92    1
   113    91    93    2
   114    93    94    1
   115    93    95    1
   116    95    96    2
   117    96    97    1
   118    96    98    1
   119    98    99    1
   120   100   163    1
   121   101   163    1
   122   102   103    1
   123   102   110    2
   124   102   112    1
   125   103   104    1
   126   103   105    2
   127   105   106    1
   128   105   107    1
   129   107   108    2
   130   107   118    1
   131   108   109    1
   132   108   110    1
   133   110   111    1
   134   112   123   un
   135   112   124   un
   136   113   114    1
   137   113   121    2
   138   114   115    1
   139   114   116    2
   140   116   117    1
   141   116   118    1
   142   118   119    2
   143   119   120    1
   144   119   121    1
   145   121   122    1
   146   123   148    1
   147   124   148    1
   148   125   126    1
   149   125   133    2
   150   125   135    1
   151   126   127    1
   152   126   128    2
   153   128   129    1
   154   128   130    1
   155   130   131    2
   156   130   141    1
   157   131   132    1
   158   131   133    1
   159   133   134    1
   160   135   146   un
   161   135   147   un
   162   136   137    1
   163   136   144    2
   164   137   138    1
   165   137   139    2
   166   139   140    1
   167   139   141    1
   168   141   142    2
   169   142   143    1
   170   142   144    1
   171   144   145    1
   172   146   155    1
   173   147   155    1
   174   148   151    1
   175   148   153    1
   176   148   167    1
   177   148   169    1
   178   148   173    1
   179   148   176    1
   180   149   150    1
   181   149   151   un
   182   149   152   un
   183   150   153   un
   184   150   154   un
   185   152   164    1
   186   154   164    1
   187   155   158    1
   188   155   160    1
   189   155   168    1
   190   155   170    1
   191   155   171    1
   192   155   174    1
   193   156   157    1
   194   156   158   un
   195   156   159   un
   196   157   160   un
   197   157   161   un
   198   159   165    1
   199   161   165    1
@<TRIPOS>SUBSTRUCTURE
     1 RES1        1 GROUP             0 ****  ****    0  
@<TRIPOS>CRYSIN
   41.2120   41.2120   41.2120   90.0000   90.0000   90.0000   205     1
