####################################################################### 
# 
# This file contains crystal structure data downloaded from the 
# Cambridge Structural Database (CSD) hosted by the Cambridge 
# Crystallographic Data Centre (CCDC).
# 
# Full information about CCDC data access policies and citation 
# guidelines are available at http://www.ccdc.cam.ac.uk/access/V1 
# 
# Audit and citation data items may have been added by the CCDC. 
# Please retain this information to preserve the provenance of 
# this file and to allow appropriate attribution of the data. 
# 
#######################################################################
@<TRIPOS>MOLECULE
MEBYIF
    92    96     2     0     0
SMALL
USER_CHARGES
****
Generated from the CSD

@<TRIPOS>ATOM
     1 Cd1      1.2795   1.4635   9.5474   Cd        1 RES1   0.0000
     2 O1       1.8111   2.5036   7.4961   O.co2     1 RES1   0.0000
     3 O2       0.2842   0.9302   7.4964   O.co2     1 RES1   0.0000
     4 O3      -6.1722  -1.2969  -2.5342   O.co2     1 RES1   0.0000
     5 O4      -5.3913  -0.7295  -4.4839   O.co2     1 RES1   0.0000
     6 O5       6.6806   5.1246  -3.3159   O.co2     1 RES1  -1.0000
     7 O6       6.1717   3.7800  -4.9946   O.co2     1 RES1   0.0000
     8 O7       0.6731  -0.7424  10.0269   O.2       1 RES1   0.0000
     9 N1       1.4270   2.7081   0.4871   N.2       1 RES1   0.0000
    10 N2      -0.6606   1.6044   0.6275   N.2       1 RES1   0.0000
    11 N3       0.3231   1.9998  -1.4911   N.2       1 RES1   0.0000
    12 N4       1.5953  -2.2112  11.4665   N.am      1 RES1   0.0000
    13 C1       1.6494   2.6740   3.2796   C.2       1 RES1   0.0000
    14 H1       2.3068   3.0975   2.7762   H         1 RES1   0.0000
    15 C2       1.7967   2.5596   4.6530   C.2       1 RES1   0.0000
    16 H2       2.5511   2.9096   5.0692   H         1 RES1   0.0000
    17 C3       0.8242   1.9256   5.4065   C.2       1 RES1   0.0000
    18 C4      -0.3092   1.4287   4.7838   C.2       1 RES1   0.0000
    19 H4      -0.9702   1.0143   5.2901   H         1 RES1   0.0000
    20 C5      -0.4645   1.5453   3.4149   C.2       1 RES1   0.0000
    21 H5      -1.2300   1.2128   3.0044   H         1 RES1   0.0000
    22 C6       0.5206   2.1566   2.6523   C.2       1 RES1   0.0000
    23 C7      -3.1449   0.5030  -3.3364   C.2       1 RES1   0.0000
    24 H7      -3.2566   0.5712  -4.2571   H         1 RES1   0.0000
    25 C8      -4.0896  -0.1651  -2.5767   C.2       1 RES1   0.0000
    26 C9      -3.9332  -0.2341  -1.2119   C.2       1 RES1   0.0000
    27 H9      -4.5728  -0.6704  -0.6964   H         1 RES1   0.0000
    28 C10     -2.8293   0.3416  -0.5960   C.2       1 RES1   0.0000
    29 H10     -2.7313   0.2901   0.3275   H         1 RES1   0.0000
    30 C11     -1.8729   0.9939  -1.3619   C.2       1 RES1   0.0000
    31 C12     -2.0350   1.0696  -2.7339   C.2       1 RES1   0.0000
    32 H12     -1.3965   1.5029  -3.2528   H         1 RES1   0.0000
    33 C13      3.8034   2.9861  -3.6659   C.2       1 RES1   0.0000
    34 H13      3.9152   2.6922  -4.5410   H         1 RES1   0.0000
    35 C14      4.7512   3.8110  -3.0921   C.2       1 RES1   0.0000
    36 C15      4.5666   4.2496  -1.7860   C.2       1 RES1   0.0000
    37 H15      5.1864   4.8253  -1.3999   H         1 RES1   0.0000
    38 C16      3.4658   3.8338  -1.0563   C.2       1 RES1   0.0000
    39 H16      3.3647   4.1102  -0.1739   H         1 RES1   0.0000
    40 C17      2.5143   3.0088  -1.6323   C.2       1 RES1   0.0000
    41 C18      2.6902   2.5952  -2.9475   C.2       1 RES1   0.0000
    42 H18      2.0523   2.0498  -3.3479   H         1 RES1   0.0000
    43 C19      0.4156   2.1688   1.1731   C.2       1 RES1   0.0000
    44 C20     -0.6749   1.5703  -0.7091   C.2       1 RES1   0.0000
    45 C21      1.3484   2.5558  -0.8368   C.2       1 RES1   0.0000
    46 C22      0.9887   1.7794   6.8906   C.2       1 RES1   0.0000
    47 C23     -5.2953  -0.7924  -3.2376   C.2       1 RES1   0.0000
    48 C24      5.9643   4.2504  -3.8775   C.2       1 RES1   0.0000
    49 C25      0.7117  -1.2203  11.1654   C.2       1 RES1   0.0000
    50 C26     -0.1916  -0.6818  12.2054   C.3       1 RES1   0.0000
    51 C27      1.6849  -2.8308  12.7608   C.3       1 RES1   0.0000
    52 C28      2.5294  -2.6748  10.4085   C.3       1 RES1   0.0000
    53 O7a      0.9336  -0.7727   9.9442   O.2       1 RES1   0.0000
    54 N4a      0.4025  -1.2878  12.1699   N.am      1 RES1   0.0000
    55 C25a     1.0363  -1.3332  11.0191   C.2       1 RES1   0.0000
    56 C26a     2.1360  -2.2574  11.3089   C.3       1 RES1   0.0000
    57 C27a     0.4421  -2.0529  13.3771   C.3       1 RES1   0.0000
    58 C28a    -0.9503  -0.4318  12.0602   C.3       1 RES1   0.0000
    59 H26a    -0.5371   0.1667  11.9223   H         1 RES1   0.0000
    60 H26b    -0.9151  -1.2878  12.3416   H         1 RES1   0.0000
    61 H26c     0.2935  -0.5757  13.0254   H         1 RES1   0.0000
    62 H27a     1.6582  -2.1559  13.4418   H         1 RES1   0.0000
    63 H27b     0.9496  -3.4391  12.8762   H         1 RES1   0.0000
    64 H27c     2.5097  -3.3179  12.8256   H         1 RES1   0.0000
    65 H28a     2.0536  -3.2194   9.7782   H         1 RES1   0.0000
    66 H28b     2.9082  -1.9142   9.9554   H         1 RES1   0.0000
    67 H28c     3.2344  -3.1891  10.8080   H         1 RES1   0.0000
    68 H26d     2.3629  -2.7270  10.5238   H         1 RES1   0.0000
    69 H26e     2.8947  -1.7574  11.6212   H         1 RES1   0.0000
    70 H26f     1.8671  -2.8785  11.9870   H         1 RES1   0.0000
    71 H27d    -0.1020  -2.8331  13.2814   H         1 RES1   0.0000
    72 H27e     1.3475  -2.3483  13.5628   H         1 RES1   0.0000
    73 H27f     0.1232  -1.5150  14.1059   H         1 RES1   0.0000
    74 H28d    -1.0005   0.0000  11.1992   H         1 RES1   0.0000
    75 H28e    -1.7024  -1.0151  12.1840   H         1 RES1   0.0000
    76 H28f    -0.9562   0.2424  12.7468   H         1 RES1   0.0000
    77 Cd2     -7.5522  -1.4635  -4.5218   Cd        1 RES1   0.0000
    78 Cd3      8.1631   6.1116  -4.5218   Cd        1 RES1   0.0000
    79 O9       2.6594   1.2969  11.5351   O.3       1 RES1   0.0000
    80 O10      3.4403   0.7295   9.5854   O.3       1 RES1   0.0000
    81 O11     -0.2030   2.4505  10.7534   O.3       1 RES1   0.0000
    82 N5       0.2687   5.6541   7.2657   N.4       2 RES2   1.0000
    83 H5a      0.1620   5.0526   7.9269   H         2 RES2   0.0000
    84 H5b      0.0082   6.4563   7.5797   H         2 RES2   0.0000
    85 C29      1.6940   5.7200   6.8996   C.3       2 RES2   0.0000
    86 H29a     2.2110   5.9669   7.6706   H         2 RES2   0.0000
    87 H29b     1.9832   4.8609   6.5816   H         2 RES2   0.0000
    88 H29c     1.8174   6.3744   6.2074   H         2 RES2   0.0000
    89 C30     -0.5770   5.2874   6.1578   C.3       2 RES2   0.0000
    90 H30a    -1.4908   5.2586   6.4485   H         2 RES2   0.0000
    91 H30b    -0.4835   5.9358   5.4561   H         2 RES2   0.0000
    92 H30c    -0.3177   4.4231   5.8303   H         2 RES2   0.0000
@<TRIPOS>BOND
     1     1     2    1
     2     1     3    1
     3     1     8    1
     4     1    79    1
     5     1    80    1
     6     1    81    1
     7     2    46   un
     8     3    46   un
     9     4    47   un
    10     4    77    1
    11     5    47   un
    12     5    77    1
    13     6    48    1
    14     6    78    1
    15     7    48    2
    16     8    49    2
    17     9    43    1
    18     9    45    2
    19    10    43    2
    20    10    44    1
    21    11    44    2
    22    11    45    1
    23    12    49   am
    24    12    51    1
    25    12    52    1
    26    13    14    1
    27    13    15    1
    28    13    22    2
    29    15    16    1
    30    15    17    2
    31    17    18    1
    32    17    46    1
    33    18    19    1
    34    18    20    2
    35    20    21    1
    36    20    22    1
    37    22    43    1
    38    23    24    1
    39    23    25    1
    40    23    31    2
    41    25    26    2
    42    25    47    1
    43    26    27    1
    44    26    28    1
    45    28    29    1
    46    28    30    2
    47    30    31    1
    48    30    44    1
    49    31    32    1
    50    33    34    1
    51    33    35    2
    52    33    41    1
    53    35    36    1
    54    35    48    1
    55    36    37    1
    56    36    38    2
    57    38    39    1
    58    38    40    1
    59    40    41    2
    60    40    45    1
    61    41    42    1
    62    49    50    1
    63    50    59    1
    64    50    60    1
    65    50    61    1
    66    51    62    1
    67    51    63    1
    68    51    64    1
    69    52    65    1
    70    52    66    1
    71    52    67    1
    72     1    53    1
    73    53    55    2
    74    54    55   am
    75    54    57    1
    76    54    58    1
    77    55    56    1
    78    56    68    1
    79    56    69    1
    80    56    70    1
    81    57    71    1
    82    57    72    1
    83    57    73    1
    84    58    74    1
    85    58    75    1
    86    58    76    1
    87    82    83    1
    88    82    84    1
    89    82    85    1
    90    82    89    1
    91    85    86    1
    92    85    87    1
    93    85    88    1
    94    89    90    1
    95    89    91    1
    96    89    92    1
@<TRIPOS>SUBSTRUCTURE
     1 RES1        1 GROUP             0 ****  ****    0  
     2 RES2       82 GROUP             0 ****  ****    0  
@<TRIPOS>CRYSIN
   15.7153    7.5751   31.3260   90.0000  116.0710   90.0000    13     1
