####################################################################### 
# 
# This file contains crystal structure data downloaded from the 
# Cambridge Structural Database (CSD) hosted by the Cambridge 
# Crystallographic Data Centre (CCDC).
# 
# Full information about CCDC data access policies and citation 
# guidelines are available at http://www.ccdc.cam.ac.uk/access/V1 
# 
# Audit and citation data items may have been added by the CCDC. 
# Please retain this information to preserve the provenance of 
# this file and to allow appropriate attribution of the data. 
# 
#######################################################################
@<TRIPOS>MOLECULE
VASDIG
    52    58     1     0     0
SMALL
NO_CHARGES
****
Generated from the CSD

@<TRIPOS>ATOM
     1 Cu1     -0.8912  10.9671  11.0405   Cu        1 RES1   0.0000
     2 O1       0.4616  10.1786   9.8000   O.co2     1 RES1   0.0000
     3 O2       1.6597  12.0620   9.5012   O.co2     1 RES1   0.0000
     4 N1       5.6149   6.5318   4.0977   N.2       1 RES1   0.0000
     5 C1       5.6979   7.1180   2.8561   C.2       1 RES1   0.0000
     6 H1       6.1260   6.6596   2.1690   H         1 RES1   0.0000
     7 C2       5.1612   8.3688   2.5973   C.2       1 RES1   0.0000
     8 C3       4.4216   8.9902   3.5918   C.2       1 RES1   0.0000
     9 H3       4.0047   9.8048   3.4199   H         1 RES1   0.0000
    10 C4       4.3002   8.3848   4.8674   C.2       1 RES1   0.0000
    11 C5       4.9136   7.1755   5.0830   C.2       1 RES1   0.0000
    12 H5       4.8481   6.7794   5.9217   H         1 RES1   0.0000
    13 C6       3.5175   9.0205   5.9790   C.2       1 RES1   0.0000
    14 C7       3.6357  10.4055   6.2285   C.2       1 RES1   0.0000
    15 H7       4.1788  10.9342   5.6875   H         1 RES1   0.0000
    16 C8       2.9392  10.9709   7.2816   C.2       1 RES1   0.0000
    17 H8       3.0367  11.8799   7.4499   H         1 RES1   0.0000
    18 C9       2.1006  10.2218   8.0932   C.2       1 RES1   0.0000
    19 C10      1.9792   8.8704   7.8190   C.2       1 RES1   0.0000
    20 H10      1.4009   8.3512   8.3310   H         1 RES1   0.0000
    21 C11      2.7028   8.2761   6.8035   C.2       1 RES1   0.0000
    22 H11      2.6405   7.3560   6.6734   H         1 RES1   0.0000
    23 C12      1.3418  10.8511   9.2239   C.2       1 RES1   0.0000
    24 C13      5.4056   8.9934   1.2342   C.3       1 RES1   0.0000
    25 C14A     5.4375  10.3799   1.0876   C.2       1 RES1   0.0000
    26 H14A     5.2123  10.9214   1.8116   H         1 RES1   0.0000
    27 C15A     5.7570   8.2346   0.1282   C.2       1 RES1   0.0000
    28 H15A     5.7506   7.3065   0.1972   H         1 RES1   0.0000
    29 C30A     6.1228   8.8224  -1.0870   C.2       1 RES1   0.0000
    30 H30A     6.3353   8.2825  -1.8116   H         1 RES1   0.0000
    31 C31A     5.8050  10.9789  -0.1386   C.2       1 RES1   0.0000
    32 H31A     5.7970  11.9054  -0.2157   H         1 RES1   0.0000
    33 C14B     4.7123  10.0588   0.7333   C.2       1 RES1   0.0000
    34 H14B     3.9743  10.3911   1.1893   H         1 RES1   0.0000
    35 C15B     6.5206   8.4998   0.5139   C.2       1 RES1   0.0000
    36 H15B     7.0094   7.7777   0.8380   H         1 RES1   0.0000
    37 C30B     6.8720   9.1084  -0.6686   C.2       1 RES1   0.0000
    38 H30B     7.6084   8.7793  -1.1338   H         1 RES1   0.0000
    39 C31B     5.1101  10.6451  -0.4683   C.2       1 RES1   0.0000
    40 H31B     4.6277  11.3767  -0.7764   H         1 RES1   0.0000
    41 C28      6.7139  10.8416  -2.4599   C.2       1 RES1   0.0000
    42 O5       7.6036  10.2457  -3.0890   O.co2     1 RES1   0.0000
    43 O6       6.2410  11.9789  -2.7778   O.co2     1 RES1   0.0000
    44 C29      6.1740  10.2074  -1.2195   C.3       1 RES1   0.0000
    45 Cu2      6.9736  12.8717  -4.3645   Cu        1 RES1   0.0000
    46 Cu3      9.0004  11.0893  -4.3645   Cu        1 RES1   0.0000
    47 Cu4      0.8912  12.9939  11.0405   Cu        1 RES1   0.0000
    48 Cu5      6.9736   4.8847   4.3645   Cu        1 RES1   0.0000
    49 O7      -1.6597  11.8990   9.5012   O.3       1 RES1   0.0000
    50 N2      -2.5383   9.6084  11.3073   N.3       1 RES1   0.0000
    51 O8      -1.7348  12.3639  12.3160   O.3       1 RES1   0.0000
    52 O9       0.0016  10.2345  12.6272   O.3       1 RES1   0.0000
@<TRIPOS>BOND
     1     1     2    1
     2     1    47    1
     3     1    49    1
     4     1    50    1
     5     1    51    1
     6     1    52    1
     7     2    23   un
     8     3    23   un
     9     3    47    1
    10     4     5    2
    11     4    11    1
    12     4    48    1
    13     5     6    1
    14     5     7    1
    15     7     8    2
    16     7    24    1
    17     8     9    1
    18     8    10    1
    19    10    11    2
    20    10    13    1
    21    11    12    1
    22    13    14    1
    23    13    21    2
    24    14    15    1
    25    14    16    2
    26    16    17    1
    27    16    18    1
    28    18    19    2
    29    18    23    1
    30    19    20    1
    31    19    21    1
    32    21    22    1
    33    24    25    1
    34    24    27    1
    35    25    26    1
    36    25    31    2
    37    27    28    1
    38    27    29    2
    39    29    30    1
    40    29    44    1
    41    31    32    1
    42    31    44    1
    43    41    42   un
    44    41    43   un
    45    41    44    1
    46    42    46    1
    47    43    45    1
    48    45    46    1
    49    24    33    1
    50    24    35    1
    51    33    34    1
    52    33    39    2
    53    35    36    1
    54    35    37    2
    55    37    38    1
    56    37    44    1
    57    39    40    1
    58    39    44    1
@<TRIPOS>SUBSTRUCTURE
     1 RES1        1 GROUP             0 ****  ****    0  
