####################################################################### 
# 
# This file contains crystal structure data downloaded from the 
# Cambridge Structural Database (CSD) hosted by the Cambridge 
# Crystallographic Data Centre (CCDC).
# 
# Full information about CCDC data access policies and citation 
# guidelines are available at http://www.ccdc.cam.ac.uk/access/V1 
# 
# Audit and citation data items may have been added by the CCDC. 
# Please retain this information to preserve the provenance of 
# this file and to allow appropriate attribution of the data. 
# 
#######################################################################
@<TRIPOS>MOLECULE
VATNEN
    57    58     3     0     0
SMALL
USER_CHARGES
****
Generated from the CSD

@<TRIPOS>ATOM
     1 Ho1     -4.3837   8.2453  24.6110   Ho        1 RES1   0.0000
     2 O1      -3.0301   7.0091  23.0191   O.3       1 RES1   0.0000
     3 O2      -2.7625   9.0932  23.0077   O.3       1 RES1   0.0000
     4 O3      -4.6840   6.2095  25.5577   O.co2     1 RES1   0.0000
     5 O4      -2.3756   8.0357  25.7870   O.3       1 RES1   0.0000
     6 O5      -5.8646   7.1327  23.0937   O.3       1 RES1   0.0000
     7 O6      -5.8187   9.3225  22.8561   O.3       1 RES1   0.0000
     8 O7      -6.3057   8.5953  25.7961   O.3       1 RES1   0.0000
     9 O8      -4.0213  10.3966  25.4321   O.3       1 RES1   0.0000
    10 C8      -5.3885   5.5429  26.3963   C.2       1 RES1   0.0000
    11 O4      -5.7713   6.0752  27.5297   O.co2     1 RES1   0.0000
    12 C4      -5.9661   4.2834  26.0124   C.2       1 RES1   0.0000
    13 Ho1     -4.9488   7.9190  28.7056   Ho        1 RES1   0.0000
    14 C3      -5.4949   3.6858  24.8631   C.2       1 RES1   0.0000
    15 C5      -7.0137   3.7642  26.7436   C.2       1 RES1   0.0000
    16 C2      -6.0903   2.5427  24.4198   C.2       1 RES1   0.0000
    17 H3      -4.7817   4.0577  24.3956   H         1 RES1   0.0000
    18 C6      -7.6036   2.5879  26.2592   C.2       1 RES1   0.0000
    19 H5      -7.3141   4.1742  27.5230   H         1 RES1   0.0000
    20 C1      -5.5964   1.8892  23.1745   C.2       1 RES1   0.0000
    21 C7      -7.1337   2.0045  25.1076   C.2       1 RES1   0.0000
    22 C9      -8.7664   1.9023  26.9721   C.2       1 RES1   0.0000
    23 O2      -4.4638   2.1542  22.6923   O.co2     1 RES1   0.0000
    24 O1      -6.1349   0.8804  22.6809   O.co2     1 RES1   0.0000
    25 H7      -7.5364   1.2269  24.7914   H         1 RES1   0.0000
    26 C10     -9.1965   2.4191  28.1763   C.2       1 RES1   0.0000
    27 C14     -9.3289   0.7474  26.4809   C.2       1 RES1   0.0000
    28 Ho1     -4.3875   0.3263  21.0890   Ho        1 RES1   0.0000
    29 C11    -10.1905   1.7740  28.8824   C.2       1 RES1   0.0000
    30 H10     -8.8186   3.2003  28.5100   H         1 RES1   0.0000
    31 C13    -10.3147   0.1046  27.1846   C.2       1 RES1   0.0000
    32 H14     -9.0385   0.4005  25.6683   H         1 RES1   0.0000
    33 C16    -10.8731   2.4120  30.0569   C.2       1 RES1   0.0000
    34 C12    -10.7448   0.6167  28.3728   C.2       1 RES1   0.0000
    35 C15    -10.8278  -1.2310  26.6477   C.2       1 RES1   0.0000
    36 O6     -12.0242   2.1815  30.4728   O.co2     1 RES1   0.0000
    37 O5     -10.1048   3.2366  30.7104   O.co2     1 RES1   0.0000
    38 H12    -11.4190   0.1827  28.8451   H         1 RES1   0.0000
    39 O7     -11.1509  -2.1233  27.5205   O.co2     1 RES1   0.0000
    40 O8     -10.8813  -1.4852  25.4321   O.co2     1 RES1  -1.0000
    41 Ho1    -11.8088   3.9628  32.2277   Ho        1 RES1   0.0000
    42 Ho1    -11.8088  -3.9628  28.7056   Ho        1 RES1   0.0000
    43 Ho1    -11.2437  -3.6366  24.6110   Ho        1 RES1   0.0000
    44 C19      1.6601   6.1786  21.9406   C.3       2 RES2   0.0000
    45 H19A     1.0929   5.7168  21.3219   H         2 RES2   0.0000
    46 H19B     1.9945   5.5511  22.5941   H         2 RES2   0.0000
    47 H19C     2.4093   6.5569  21.4648   H         2 RES2   0.0000
    48 C20      0.0892   6.7133  23.6977   C.3       2 RES2   0.0000
    49 H20A    -0.4493   7.4185  24.0640   H         2 RES2   0.0000
    50 H20B     0.6643   6.3622  24.3850   H         2 RES2   0.0000
    51 H20C    -0.4709   6.0176  23.3596   H         2 RES2   0.0000
    52 N1       0.9062   7.2468  22.6169   N.4       2 RES2   1.0000
    53 H1A      1.4780   7.8494  22.9444   H         2 RES2   0.0000
    54 H1B      0.3853   7.6569  22.0258   H         2 RES2   0.0000
    55 O9       1.9853   7.0816  17.1147   O.3       3 RES3   0.0000
    56 H9A      1.6356   6.4607  16.6502   H         3 RES3   0.0000
    57 H9B      2.0242   7.7466  16.5872   H         3 RES3   0.0000
@<TRIPOS>BOND
     1     1     2    1
     2     1     3    1
     3     1     4    1
     4     1     5    1
     5     1     6    1
     6     1     7    1
     7     1     8    1
     8     1     9    1
     9    11    13    1
    10    29    33    1
    11    36    41    1
    12    39    42    1
    13    16    14    2
    14    15    18    1
    15    15    19    1
    16    34    31    2
    17    40    43    1
    18    28    23    1
    19    10    11   un
    20    26    30    1
    21    35    39   un
    22    31    27    1
    23    33    36   un
    24    29    34    1
    25    20    23   un
    26    37    41    1
    27    26    29    2
    28    16    21    1
    29    31    35    1
    30    21    25    1
    31    14    12    1
    32    34    38    1
    33    35    40   un
    34    14    17    1
    35    12    15    2
    36    18    21    2
    37    22    26    1
    38    22    27    2
    39    20    16    1
    40    18    22    1
    41    10     4   un
    42    27    32    1
    43    28    24    1
    44    33    37   un
    45    12    10    1
    46    20    24   un
    47    44    45    1
    48    44    46    1
    49    44    47    1
    50    44    52    1
    51    48    49    1
    52    48    50    1
    53    48    51    1
    54    48    52    1
    55    52    53    1
    56    52    54    1
    57    55    56    1
    58    55    57    1
@<TRIPOS>SUBSTRUCTURE
     1 RES1        1 GROUP             0 ****  ****    0  
     2 RES2       44 GROUP             0 ****  ****    0  
     3 RES3       55 GROUP             0 ****  ****    0  
@<TRIPOS>CRYSIN
   13.7200   13.7200   22.8500   90.0000   90.0000  120.0000   152     1
