####################################################################### 
# 
# This file contains crystal structure data downloaded from the 
# Cambridge Structural Database (CSD) hosted by the Cambridge 
# Crystallographic Data Centre (CCDC).
# 
# Full information about CCDC data access policies and citation 
# guidelines are available at http://www.ccdc.cam.ac.uk/access/V1 
# 
# Audit and citation data items may have been added by the CCDC. 
# Please retain this information to preserve the provenance of 
# this file and to allow appropriate attribution of the data. 
# 
#######################################################################
@<TRIPOS>MOLECULE
QOZFEU
    75    83     1     0     0
SMALL
USER_CHARGES
****
Generated from the CSD

@<TRIPOS>ATOM
     1 Cd1      1.6436   9.0771   4.7049   Cd        1 RES1   0.0000
     2 Cd2     -5.8180  11.7854   3.6187   Cd        1 RES1   0.0000
     3 O1       0.1384   9.4342   6.3144   O.co2     1 RES1   0.0000
     4 O2      -0.9279   8.9654   4.4668   O.co2     1 RES1   0.0000
     5 O3      -6.0346   9.7013   4.5404   O.co2     1 RES1  -1.0000
     6 O4      -6.9240   9.1934   6.4681   O.co2     1 RES1   0.0000
     7 O5      -0.4893   7.4826  17.8019   O.co2     1 RES1   0.0000
     8 O6      -0.5285   9.6561  18.0259   O.co2     1 RES1   0.0000
     9 O7       0.4184   5.4433  13.4626   O.co2     1 RES1   0.0000
    10 O8       0.4576   6.6147  11.6314   O.co2     1 RES1  -1.0000
    11 O9       3.7132  16.9528  11.2929   O.co2     1 RES1   0.0000
    12 O10      2.7685  18.2678  12.7432   O.co2     1 RES1   0.0000
    13 O11     -3.3692  17.2422  11.7524   O.co2     1 RES1   0.0000
    14 O12     -2.2007  18.8943  12.5797   O.co2     1 RES1   0.0000
    15 O13     -3.3615  10.6290   9.7119   O.3       1 RES1   0.0000
    16 O14     -0.3802  11.4021  13.3743   O.3       1 RES1   0.0000
    17 O15     -0.1336  14.1554   9.5369   O.3       1 RES1   0.0000
    18 C1      -3.3318  10.2644   8.3777   C.2       1 RES1   0.0000
    19 C2      -2.1644  10.0059   7.7090   C.2       1 RES1   0.0000
    20 H2A     -1.3463  10.1045   8.1407   H         1 RES1   0.0000
    21 C3      -2.2077   9.5900   6.3634   C.2       1 RES1   0.0000
    22 C4      -3.4373   9.4653   5.7290   C.2       1 RES1   0.0000
    23 H4A     -3.4791   9.2268   4.8314   H         1 RES1   0.0000
    24 C5      -4.6099   9.7022   6.4501   C.2       1 RES1   0.0000
    25 C6      -4.5548  10.1026   7.7744   C.2       1 RES1   0.0000
    26 H6A     -5.3375  10.2567   8.2518   H         1 RES1   0.0000
    27 C7      -0.9401   9.3001   5.6538   C.2       1 RES1   0.0000
    28 C8      -5.9359   9.5203   5.7617   C.2       1 RES1   0.0000
    29 C9      -0.0243   9.0051  13.0653   C.2       1 RES1   0.0000
    30 H9A      0.0975   9.0910  12.1464   H         1 RES1   0.0000
    31 C10     -0.2980  10.1116  13.8566   C.2       1 RES1   0.0000
    32 C11     -0.4549  10.0082  15.2300   C.2       1 RES1   0.0000
    33 H11A    -0.6276  10.7656  15.7418   H         1 RES1   0.0000
    34 C12     -0.3540   8.7729  15.8284   C.2       1 RES1   0.0000
    35 C13     -0.0839   7.6584  15.0583   C.2       1 RES1   0.0000
    36 H13A    -0.0003   6.8295  15.4687   H         1 RES1   0.0000
    37 C14      0.0654   7.7533  13.6849   C.2       1 RES1   0.0000
    38 C15     -0.4633   8.6599  17.3146   C.2       1 RES1   0.0000
    39 C16      0.3398   6.5311  12.8691   C.2       1 RES1   0.0000
    40 C17     -1.0243  17.1133  11.4891   C.2       1 RES1   0.0000
    41 C18      0.2011  17.6123  11.8063   C.2       1 RES1   0.0000
    42 H18A     0.2740  18.3996  12.2968   H         1 RES1   0.0000
    43 C19      1.3534  16.9316  11.3894   C.2       1 RES1   0.0000
    44 C20      1.2190  15.8076  10.6013   C.2       1 RES1   0.0000
    45 H20A     1.9766  15.3770  10.2792   H         1 RES1   0.0000
    46 C21     -0.0221  15.3223  10.2907   C.2       1 RES1   0.0000
    47 C22     -1.1661  15.9724  10.7240   C.2       1 RES1   0.0000
    48 H22A    -2.0087  15.6491  10.5032   H         1 RES1   0.0000
    49 C23      2.7096  17.4352  11.8080   C.2       1 RES1   0.0000
    50 C24     -2.2893  17.8208  11.9600   C.2       1 RES1   0.0000
    51 C25     -0.8601  11.6522  12.0761   C.2       1 RES1   0.0000
    52 C26     -1.8632  10.9368  11.4957   C.2       1 RES1   0.0000
    53 H26A    -2.2509  10.2132  11.9322   H         1 RES1   0.0000
    54 C27     -2.2868  11.3216  10.2351   C.2       1 RES1   0.0000
    55 C28     -1.7310  12.3985   9.5844   C.2       1 RES1   0.0000
    56 H28A    -2.0232  12.6456   8.7358   H         1 RES1   0.0000
    57 C29     -0.7308  13.0993  10.2155   C.2       1 RES1   0.0000
    58 C30     -0.2876  12.7412  11.4695   C.2       1 RES1   0.0000
    59 H30A     0.3826  13.2249  11.8946   H         1 RES1   0.0000
    60 Cd1     -8.4822   9.0771   4.7049   Cd        1 RES1   0.0000
    61 Cd1      0.6905   4.1543  11.6451   Cd        1 RES1   0.0000
    62 Cd1     -2.3730  20.9800  11.6451   Cd        1 RES1   0.0000
    63 Cd2     -0.4204   8.1912  19.9687   Cd        1 RES1   0.0000
    64 Cd2     -5.0373  18.2717  12.7312   Cd        1 RES1   0.0000
    65 Cd2      5.0885  18.2717  12.7312   Cd        1 RES1   0.0000
    66 O3       4.0912   9.7013   4.5404   O.3       1 RES1   0.0000
    67 O4       3.2018   9.1934   6.4681   O.3       1 RES1   0.0000
    68 O5      -5.8869  11.0769   1.4519   O.3       1 RES1   0.0000
    69 O6      -5.9260  13.2503   1.6759   O.3       1 RES1   0.0000
    70 O7       1.9156   7.7882   2.8874   O.3       1 RES1   0.0000
    71 O8       1.8764   6.6167   4.7186   O.3       1 RES1   0.0000
    72 O9      -4.4427  13.1043   5.0570   O.3       1 RES1   0.0000
    73 O10     -3.4980  11.7894   3.6068   O.3       1 RES1   0.0000
    74 O11     -7.4861  12.8150   4.5976   O.3       1 RES1   0.0000
    75 O12      1.4713  11.1628   3.7703   O.3       1 RES1   0.0000
@<TRIPOS>BOND
     1     1     3    1
     2     1     4    1
     3     1    66    1
     4     1    67    1
     5     1    70    1
     6     1    71    1
     7     1    75    1
     8     2     5    1
     9     2    68    1
    10     2    69    1
    11     2    72    1
    12     2    73    1
    13     2    74    1
    14     3    27   un
    15     4    27   un
    16     5    28   un
    17     5    60    1
    18     6    28   un
    19     6    60    1
    20     7    38   un
    21     7    63    1
    22     8    38   un
    23     8    63    1
    24     9    39   un
    25     9    61    1
    26    10    39   un
    27    10    61    1
    28    11    49   un
    29    11    65    1
    30    12    49   un
    31    12    65    1
    32    13    50   un
    33    13    64    1
    34    14    50   un
    35    14    62    1
    36    15    18    1
    37    15    54    1
    38    16    31    1
    39    16    51    1
    40    17    46    1
    41    17    57    1
    42    18    19    2
    43    18    25    1
    44    19    20    1
    45    19    21    1
    46    21    22    2
    47    21    27    1
    48    22    23    1
    49    22    24    1
    50    24    25    2
    51    24    28    1
    52    25    26    1
    53    29    30    1
    54    29    31    2
    55    29    37    1
    56    31    32    1
    57    32    33    1
    58    32    34    2
    59    34    35    1
    60    34    38    1
    61    35    36    1
    62    35    37    2
    63    37    39    1
    64    40    41    2
    65    40    47    1
    66    40    50    1
    67    41    42    1
    68    41    43    1
    69    43    44    2
    70    43    49    1
    71    44    45    1
    72    44    46    1
    73    46    47    2
    74    47    48    1
    75    51    52    2
    76    51    58    1
    77    52    53    1
    78    52    54    1
    79    54    55    2
    80    55    56    1
    81    55    57    1
    82    57    58    2
    83    58    59    1
@<TRIPOS>SUBSTRUCTURE
     1 RES1        1 GROUP             0 ****  ****    0  
@<TRIPOS>CRYSIN
   10.1258   17.1023   17.3953   98.8930  105.7720  100.3190     2     1
