####################################################################### 
# 
# This file contains crystal structure data downloaded from the 
# Cambridge Structural Database (CSD) hosted by the Cambridge 
# Crystallographic Data Centre (CCDC).
# 
# Full information about CCDC data access policies and citation 
# guidelines are available at http://www.ccdc.cam.ac.uk/access/V1 
# 
# Audit and citation data items may have been added by the CCDC. 
# Please retain this information to preserve the provenance of 
# this file and to allow appropriate attribution of the data. 
# 
#######################################################################
@<TRIPOS>MOLECULE
JAQRIG
    56    45    16     0     0
SMALL
NO_CHARGES
****
Generated from the CSD

@<TRIPOS>ATOM
     1 Zn01    13.7381   7.9055  12.2165   Zn        1 RES1   0.0000
     2 O1      14.4594   7.3266  10.4953   O.co2     1 RES1   0.0000
     3 O2      12.6851   8.5655  10.0206   O.co2     1 RES1   0.0000
     4 N1      11.9836   7.0491  12.6992   N.2       1 RES1   0.0000
     5 N2      11.7598   6.1964  13.7640   N.2       1 RES1   0.0000
     6 N3       9.8454   6.4887  12.6915   N.2       1 RES1   0.0000
     7 C1      13.6389   7.8698   9.6599   C.2       1 RES1   0.0000
     8 C2      13.8859   7.6054   8.2029   C.2       1 RES1   0.0000
     9 C3      14.8188   6.6725   7.7869   C.2       1 RES1   0.0000
    10 H3      15.3088   6.1942   8.4154   H         1 RES1   0.0000
    11 C4      13.1611   8.3127   7.2460   C.2       1 RES1   0.0000
    12 H4      12.5194   8.9284   7.5183   H         1 RES1   0.0000
    13 C5      10.8215   7.1946  12.1008   C.2       1 RES1   0.0000
    14 H5      10.6909   7.7293  11.3510   H         1 RES1   0.0000
    15 C6      10.4832   5.8872  13.7137   C.2       1 RES1   0.0000
    16 H6      10.0656   5.3157  14.3175   H         1 RES1   0.0000
    17 O1      14.0380   7.7480   3.1779   O.co2     1 RES1   0.0000
    18 O2      15.2769   5.9737   3.6527   O.co2     1 RES1   0.0000
    19 C1      14.5812   6.9275   4.0134   C.2       1 RES1   0.0000
    20 C2      14.3168   7.1745   5.4704   C.2       1 RES1   0.0000
    21 C3      13.3839   8.1074   5.8863   C.2       1 RES1   0.0000
    22 H3      12.9056   8.5974   5.2578   H         1 RES1   0.0000
    23 C4      15.0241   6.4497   6.4272   C.2       1 RES1   0.0000
    24 H4      15.6398   5.8080   6.1549   H         1 RES1   0.0000
    25 Zn01    12.2287  13.7381  12.2165   Zn        1 RES1   0.0000
    26 N1      13.0851  11.9836  12.6992   N.2       1 RES1   0.0000
    27 N2      13.9378  11.7598  13.7640   N.2       1 RES1   0.0000
    28 N3      13.6455   9.8454  12.6915   N.2       1 RES1   0.0000
    29 C5      12.9396  10.8215  12.1008   C.2       1 RES1   0.0000
    30 H5      12.4049  10.6909  11.3510   H         1 RES1   0.0000
    31 C6      14.2470  10.4832  13.7137   C.2       1 RES1   0.0000
    32 H6      14.8185  10.0656  14.3175   H         1 RES1   0.0000
    33 Zn01     7.9055   6.3961  12.2165   Zn        1 RES1   0.0000
    34 Zn01    14.6169   7.0267   1.4567   Zn        1 RES1   0.0000
    35 Zn01    13.1075   5.5173  15.1300   Zn        1 RES1   0.0000
    36 Zn01    14.6169  13.1075  15.1300   Zn        1 RES1   0.0000
    37 O1      12.8076  14.4594  10.4953   O.3       1 RES1   0.0000
    38 O2      11.5687  12.6851  10.0206   O.3       1 RES1   0.0000
    39 N2      15.0858   7.2264  13.5825   N.3       1 RES1   0.0000
    40 N2      12.9078  15.0858  13.5825   N.3       1 RES1   0.0000
    41 N3      10.2888  13.6455  12.6915   N.3       1 RES1   0.0000
    42 O3?     10.0671   3.3557  15.6802   O.3       2 RES2   0.0000
    43 N4?      9.5181   4.2617  17.7479   N.3       3 RES3   0.0000
    44 C7?     10.0671   3.3557  16.9029   C.3       4 RES4   0.0000
    45 C8?     10.8725   2.2456  17.5154   C.3       5 RES5   0.0000
    46 H8A?    10.2861   1.6417  17.9753   H         6 RES6   0.0000
    47 H8B?    11.5048   2.6146  18.1354   H         7 RES7   0.0000
    48 H8C?    11.3414   1.7723  16.8234   H         8 RES8   0.0000
    49 C9?      8.9195   5.4174  17.1408   C.3       9 RES9   0.0000
    50 H9A?     9.6077   6.0257  16.8611   H        10 RES10   0.0000
    51 H9B?     8.3459   5.8530  17.7753   H        11 RES11   0.0000
    52 H9C?     8.4032   5.1468  16.3768   H        12 RES12   0.0000
    53 C10?     9.3543   4.0349  19.1343   C.3      13 RES13   0.0000
    54 H10A?    9.5445   3.1143  19.3326   H        14 RES14   0.0000
    55 H10B?    8.4506   4.2359  19.3875   H        15 RES15   0.0000
    56 H10C?    9.9573   4.5982  19.6246   H        16 RES16   0.0000
@<TRIPOS>BOND
     1     1     2    1
     2     1     3    1
     3     1     4    1
     4     1    28    1
     5     1    39    1
     6     2     7   un
     7     3     7   un
     8     4     5    1
     9     4    13    2
    10     5    15    2
    11     5    35    1
    12     6    13    1
    13     6    15    1
    14     6    33    1
    15     7     8    1
    16     8     9    2
    17     8    11    1
    18     9    10    1
    19     9    23    1
    20    11    12    1
    21    11    21    2
    22    13    14    1
    23    15    16    1
    24    17    19   un
    25    17    34    1
    26    18    19   un
    27    18    34    1
    28    19    20    1
    29    20    21    1
    30    20    23    2
    31    21    22    1
    32    23    24    1
    33    25    26    1
    34    25    37    1
    35    25    38    1
    36    25    40    1
    37    25    41    1
    38    26    27    1
    39    26    29    2
    40    27    31    2
    41    27    36    1
    42    28    29    1
    43    28    31    1
    44    29    30    1
    45    31    32    1
@<TRIPOS>SUBSTRUCTURE
     1 RES1        1 GROUP             0 ****  ****    0  
     2 RES2       42 GROUP             0 ****  ****    0  
     3 RES3       43 GROUP             0 ****  ****    0  
     4 RES4       44 GROUP             0 ****  ****    0  
     5 RES5       45 GROUP             0 ****  ****    0  
     6 RES6       46 GROUP             0 ****  ****    0  
     7 RES7       47 GROUP             0 ****  ****    0  
     8 RES8       48 GROUP             0 ****  ****    0  
     9 RES9       49 GROUP             0 ****  ****    0  
    10 RES10      50 GROUP             0 ****  ****    0  
    11 RES11      51 GROUP             0 ****  ****    0  
    12 RES12      52 GROUP             0 ****  ****    0  
    13 RES13      53 GROUP             0 ****  ****    0  
    14 RES14      54 GROUP             0 ****  ****    0  
    15 RES15      55 GROUP             0 ****  ****    0  
    16 RES16      56 GROUP             0 ****  ****    0  
