####################################################################### 
# 
# This file contains crystal structure data downloaded from the 
# Cambridge Structural Database (CSD) hosted by the Cambridge 
# Crystallographic Data Centre (CCDC).
# 
# Full information about CCDC data access policies and citation 
# guidelines are available at http://www.ccdc.cam.ac.uk/access/V1 
# 
# Audit and citation data items may have been added by the CCDC. 
# Please retain this information to preserve the provenance of 
# this file and to allow appropriate attribution of the data. 
# 
#######################################################################
@<TRIPOS>MOLECULE
JARKOG
    51    54     2     0     0
SMALL
NO_CHARGES
****
Generated from the CSD

@<TRIPOS>ATOM
     1 Zn1      7.0086   5.5433  12.2247   Zn        1 RES1   0.0000
     2 O1       7.7046   6.0895  10.4667   O.co2     1 RES1   0.0000
     3 O2       5.9419   4.8706  10.0352   O.co2     1 RES1   0.0000
     4 N1       5.2639   6.4104  12.7166   N.2       1 RES1   0.0000
     5 N2       5.0196   7.2038  13.8220   N.2       1 RES1   0.0000
     6 N3       3.1092   6.9232  12.7382   N.2       1 RES1   0.0000
     7 C5       4.1013   6.2654  12.1149   C.2       1 RES1   0.0000
     8 H5       3.9794   5.7625  11.3423   H         1 RES1   0.0000
     9 C1       6.8897   5.5512   9.6540   C.2       1 RES1   0.0000
    10 C6       3.7375   7.4790  13.7832   C.2       1 RES1   0.0000
    11 H6       3.3069   8.0059  14.4170   H         1 RES1   0.0000
    12 C2       7.1353   5.8264   8.1831   C.2       1 RES1   0.0000
    13 C3       8.0590   6.7393   7.7899   C.2       1 RES1   0.0000
    14 H3       8.5468   7.2042   8.4306   H         1 RES1   0.0000
    15 C4       6.4292   5.1364   7.2700   C.2       1 RES1   0.0000
    16 H4       5.7853   4.5201   7.5360   H         1 RES1   0.0000
    17 O1       7.3354   5.7203   3.2142   O.co2     1 RES1   0.0000
    18 O2       8.5543   7.4830   3.6457   O.co2     1 RES1   0.0000
    19 C1       7.8737   6.5352   4.0268   C.2       1 RES1   0.0000
    20 C2       7.5985   6.2896   5.4978   C.2       1 RES1   0.0000
    21 C3       6.6856   5.3659   5.8910   C.2       1 RES1   0.0000
    22 H3       6.2207   4.8781   5.2502   H         1 RES1   0.0000
    23 C4       8.2885   6.9957   6.4108   C.2       1 RES1   0.0000
    24 H4       8.9048   7.6396   6.1448   H         1 RES1   0.0000
    25 Zn1      1.1692   7.0086  12.2247   Zn        1 RES1   0.0000
    26 N1       0.3021   5.2639  12.7166   N.2       1 RES1   0.0000
    27 N2      -0.4914   5.0196  13.8220   N.2       1 RES1   0.0000
    28 N3      -0.2108   3.1092  12.7382   N.2       1 RES1   0.0000
    29 C5       0.4470   4.1013  12.1149   C.2       1 RES1   0.0000
    30 H5       0.9500   3.9794  11.3423   H         1 RES1   0.0000
    31 C6      -0.7666   3.7375  13.7832   C.2       1 RES1   0.0000
    32 H6      -1.2934   3.3069  14.4170   H         1 RES1   0.0000
    33 Zn1     -0.2962   1.1692  12.2247   Zn        1 RES1   0.0000
    34 Zn1      7.8816   6.4163   1.4562   Zn        1 RES1   0.0000
    35 Zn1      6.4163   7.8816  15.1370   Zn        1 RES1   0.0000
    36 Zn1     -1.1692   6.4163  15.1370   Zn        1 RES1   0.0000
    37 O1       0.6229   7.7046  10.4667   O.3       1 RES1   0.0000
    38 O2       1.8419   5.9419  10.0352   O.3       1 RES1   0.0000
    39 N2       8.4053   6.2211  13.5397   N.3       1 RES1   0.0000
    40 N2       0.4914   8.4053  13.5397   N.3       1 RES1   0.0000
    41 N3       6.9232   3.6032  12.7382   N.3       1 RES1   0.0000
    42 O3       3.3562  10.0687  15.8835   O.2       2 RES2   0.0000
    43 C7       3.3562  10.0687  17.0518   C.2       2 RES2   0.0000
    44 C8       4.2047  11.0782  17.8043   C.3       2 RES2   0.0000
    45 H8A      5.0528  10.6838  18.0232   H         2 RES2   0.0000
    46 H8B      3.7543  11.3344  18.6135   H         2 RES2   0.0000
    47 H8C      4.3438  11.8531  17.2566   H         2 RES2   0.0000
    48 C8       2.5078   9.0591  17.8043   C.3       2 RES2   0.0000
    49 H8A      1.6597   9.4536  18.0232   H         2 RES2   0.0000
    50 H8B      2.9581   8.8029  18.6135   H         2 RES2   0.0000
    51 H8C      2.3686   8.2843  17.2566   H         2 RES2   0.0000
@<TRIPOS>BOND
     1     1     2    1
     2     1     3    1
     3     1     4    1
     4     1    39    1
     5     1    41    1
     6     2     9   un
     7     3     9   un
     8     4     5    1
     9     4     7    2
    10     5    10    2
    11     5    35    1
    12     6     7    1
    13     6    10    1
    14     6    25    1
    15     7     8    1
    16     9    12    1
    17    10    11    1
    18    12    13    2
    19    12    15    1
    20    13    14    1
    21    13    23    1
    22    15    16    1
    23    15    21    2
    24    17    19   un
    25    17    34    1
    26    18    19   un
    27    18    34    1
    28    19    20    1
    29    20    21    1
    30    20    23    2
    31    21    22    1
    32    23    24    1
    33    25    26    1
    34    25    37    1
    35    25    38    1
    36    25    40    1
    37    26    27    1
    38    26    29    2
    39    27    31    2
    40    27    36    1
    41    28    29    1
    42    28    31    1
    43    28    33    1
    44    29    30    1
    45    31    32    1
    46    42    43    2
    47    43    44    1
    48    43    48    1
    49    44    45    1
    50    44    46    1
    51    44    47    1
    52    48    49    1
    53    48    50    1
    54    48    51    1
@<TRIPOS>SUBSTRUCTURE
     1 RES1        1 GROUP             0 ****  ****    0  
     2 RES2       42 GROUP             0 ****  ****    0  
