####################################################################### 
# 
# This file contains crystal structure data downloaded from the 
# Cambridge Structural Database (CSD) hosted by the Cambridge 
# Crystallographic Data Centre (CCDC).
# 
# Full information about CCDC data access policies and citation 
# guidelines are available at http://www.ccdc.cam.ac.uk/access/V1 
# 
# Audit and citation data items may have been added by the CCDC. 
# Please retain this information to preserve the provenance of 
# this file and to allow appropriate attribution of the data. 
# 
#######################################################################
@<TRIPOS>MOLECULE
YANFAY
    96    97    11     0     0
SMALL
NO_CHARGES
****
Generated from the CSD

@<TRIPOS>ATOM
     1 Eu1      2.9066   3.4203  13.5718   Eu        1 RES1   0.0000
     2 Eu2      7.1138   3.6347  13.1595   Eu        1 RES1   0.0000
     3 S1       4.9718   6.4322  14.0369   S.o2      1 RES1   0.0000
     4 S2       0.0145   5.7547  14.0180   S.o2      1 RES1   0.0000
     5 O1       6.1934   5.7486  13.6454   O.3       1 RES1   0.0000
     6 O2       1.0660   4.9364  13.4423   O.3       1 RES1   0.0000
     7 O3       1.1875   2.2681  12.2261   O.3       1 RES1   0.0000
     8 H3A      1.0168   1.4900  12.5789   H         1 RES1   0.0000
     9 H3B      0.4362   2.7037  12.2844   H         1 RES1   0.0000
    10 O4       8.8039   2.1598  13.9923   O.3       1 RES1   0.0000
    11 H4A      8.7253   1.3068  14.1410   H         1 RES1   0.0000
    12 H4B      9.5363   2.3861  14.4045   H         1 RES1   0.0000
    13 O5       3.7982   5.5801  13.9897   O.2       1 RES1   0.0000
    14 O6      -1.8231  10.3751  15.1909   O.co2     1 RES1   0.0000
    15 O7       3.8847  11.4565   7.8772   O.co2     1 RES1   0.0000
    16 O8       5.1004   7.0691  15.3434   O.2       1 RES1   0.0000
    17 O9       1.1657   9.9329   8.6670   O.co2     1 RES1   0.0000
    18 O10      5.8138  10.7436   8.6378   O.co2     1 RES1   0.0000
    19 O11     -1.2543   5.0507  14.0259   O.2       1 RES1   0.0000
    20 O12      0.3261   6.2795  15.3388   O.2       1 RES1   0.0000
    21 O13      1.8957   9.8983  14.7901   O.co2     1 RES1   0.0000
    22 O14      0.6951  11.4956  13.9131   O.co2     1 RES1   0.0000
    23 O15      0.1453  11.8446   8.5100   O.co2     1 RES1   0.0000
    24 O17     -3.6595  11.0700  14.2413   O.co2     1 RES1   0.0000
    25 O18      3.5759   1.1311  12.9256   O.3       1 RES1   0.0000
    26 H18A     3.2817   0.9521  12.1192   H         1 RES1   0.0000
    27 H18B     3.1643   0.5477  13.4384   H         1 RES1   0.0000
    28 O19      6.4462   1.2409  12.8341   O.3       1 RES1   0.0000
    29 H19A     5.5837   1.1602  12.9470   H         1 RES1   0.0000
    30 H19B     6.7937   0.7471  13.4661   H         1 RES1   0.0000
    31 C1      -2.5132  10.6127  14.1456   C.2       1 RES1   0.0000
    32 C2       4.6164  11.0083   8.8400   C.2       1 RES1   0.0000
    33 C3       1.6355  10.6834  13.8152   C.2       1 RES1   0.0000
    34 C4      -0.1333   7.1413  12.9316   C.2       1 RES1   0.0000
    35 C5       4.7118   7.7054  12.8520   C.2       1 RES1   0.0000
    36 C6      -0.9480   8.1867  13.2799   C.2       1 RES1   0.0000
    37 H6      -1.4344   8.1494  14.0955   H         1 RES1   0.0000
    38 C7       0.3277  10.7361   9.1146   C.2       1 RES1   0.0000
    39 C8       0.6069   7.1744  11.7395   C.2       1 RES1   0.0000
    40 H8       1.1834   6.4535  11.5158   H         1 RES1   0.0000
    41 C9       5.2965   8.8620  10.8520   C.2       1 RES1   0.0000
    42 H9       5.8306   8.9397  10.0709   H         1 RES1   0.0000
    43 C10      3.6765   8.5536  13.0948   C.2       1 RES1   0.0000
    44 H10      3.0979   8.3923  13.8310   H         1 RES1   0.0000
    45 C11      0.4945   8.2423  10.9037   C.2       1 RES1   0.0000
    46 H11      0.9914   8.2516  10.0946   H         1 RES1   0.0000
    47 C12      3.4569   9.6712  12.2609   C.2       1 RES1   0.0000
    48 C13     -1.0735   9.3177  12.4440   C.2       1 RES1   0.0000
    49 C14      4.2572   9.8035  11.0768   C.2       1 RES1   0.0000
    50 C15     -0.3468   9.3433  11.2102   C.2       1 RES1   0.0000
    51 C16     -1.8961  10.4232  12.7903   C.2       1 RES1   0.0000
    52 C17      3.0213  11.8024  10.5057   C.2       1 RES1   0.0000
    53 H17      2.8501  12.5163   9.9019   H         1 RES1   0.0000
    54 C18      5.5494   7.8452  11.7336   C.2       1 RES1   0.0000
    55 H18      6.2755   7.2489  11.5933   H         1 RES1   0.0000
    56 C19      3.9668  10.8684  10.1813   C.2       1 RES1   0.0000
    57 C20      2.4783  10.6759  12.5654   C.2       1 RES1   0.0000
    58 C21     -1.3636  11.4761  10.7047   C.2       1 RES1   0.0000
    59 H21     -1.4933  12.2030  10.1078   H         1 RES1   0.0000
    60 C22     -0.4894  10.4864  10.3564   C.2       1 RES1   0.0000
    61 C23      2.2967  11.7302  11.7077   C.2       1 RES1   0.0000
    62 H23      1.6770  12.4170  11.9276   H         1 RES1   0.0000
    63 C24     -2.0742  11.4565  11.9067   C.2       1 RES1   0.0000
    64 H24     -2.6800  12.1580  12.1115   H         1 RES1   0.0000
    65 Eu3      0.2761  10.9406  16.2795   Eu        1 RES1   0.0000
    66 Eu4      5.9489  11.6204   6.3291   Eu        1 RES1   0.0000
    67 Eu5     -2.9867   3.6347  13.1595   Eu        1 RES1   0.0000
    68 Eu6     -3.9311  11.1551  16.6919   Eu        1 RES1   0.0000
    69 Eu7      1.7417  11.4060   6.7414   Eu        1 RES1   0.0000
    70 O23      5.0057   2.8547  14.6604   O.3       1 RES1   0.0000
    71 O24      4.9707   3.5842  12.0237   O.3       1 RES1   0.0000
    72 O25      7.6897   5.1078  11.2339   O.3       1 RES1   0.0000
    73 O26      3.0416   4.2971  11.2631   O.3       1 RES1   0.0000
    74 O27      8.8462   5.0507  14.0259   O.3       1 RES1   0.0000
    75 O28      1.2869   2.3779  15.0612   O.3       1 RES1   0.0000
    76 O29      2.4875   3.9753  15.9382   O.3       1 RES1   0.0000
    77 O30      8.7101   3.1961  11.3909   O.3       1 RES1   0.0000
    78 O31      6.8422   3.5496  15.6101   O.3       1 RES1   0.0000
    79 O19A?    6.7231   1.4259  12.2828   O.3       2 RES2   0.0000
    80 H19C?    5.8538   1.1850  12.3180   H         3 RES3   0.0000
    81 H19D?    7.0569   0.7618  12.6880   H         4 RES4   0.0000
    82 O16      2.5772   7.0842  16.9259   O.3       5 RES5   0.0000
    83 H16A     1.9751   6.7165  16.4176   H         5 RES5   0.0000
    84 H16B     3.3291   6.9409  16.5137   H         5 RES5   0.0000
    85 O20      0.6809  -0.4512   9.9584   O.3       6 RES6   0.0000
    86 H20A     0.5671  -1.0159   9.4715   H         6 RES6   0.0000
    87 H20B     0.5665  -0.8696  10.7083   H         6 RES6   0.0000
    88 O21      3.2963   0.7641  10.1793   O.3       7 RES7   0.0000
    89 H21A     3.0199  -0.0418  10.1547   H         7 RES7   0.0000
    90 H21B     2.6349   1.2132   9.8369   H         7 RES7   0.0000
    91 O22      5.2505  -1.8034  12.6689   O.3       8 RES8   0.0000
    92 H22A     5.8897  -1.7708  13.1732   H         8 RES8   0.0000
    93 H22B     4.9390  -1.0302  13.0223   H         8 RES8   0.0000
    94 O22A?    5.5492  -0.8453  13.3037   O.3       9 RES9   0.0000
    95 H22C?    5.2080  -0.0925  13.1213   H        10 RES10   0.0000
    96 H22D?    5.9008  -1.3254  12.6478   H        11 RES11   0.0000
@<TRIPOS>BOND
     1     1     6    1
     2     1     7    1
     3     1    13    1
     4     1    25    1
     5     1    70    1
     6     1    71    1
     7     1    73    1
     8     1    75    1
     9     1    76    1
    10     2     5    1
    11     2    10    1
    12     2    28    1
    13     2    70    1
    14     2    71    1
    15     2    72    1
    16     2    74    1
    17     2    77    1
    18     2    78    1
    19     3     5    1
    20     3    13    2
    21     3    16    2
    22     3    35    1
    23     4     6    1
    24     4    19    2
    25     4    20    2
    26     4    34    1
    27     7     8    1
    28     7     9    1
    29    10    11    1
    30    10    12    1
    31    14    31   un
    32    14    65    1
    33    14    68    1
    34    15    32   un
    35    15    66    1
    36    15    69    1
    37    17    38   un
    38    17    69    1
    39    18    32   un
    40    18    66    1
    41    19    67    1
    42    21    33   un
    43    21    65    1
    44    22    33   un
    45    22    65    1
    46    23    38   un
    47    23    69    1
    48    24    31   un
    49    24    68    1
    50    25    26    1
    51    25    27    1
    52    28    29    1
    53    28    30    1
    54    31    51    1
    55    32    56    1
    56    33    57    1
    57    34    36    2
    58    34    39    1
    59    35    43    2
    60    35    54    1
    61    36    37    1
    62    36    48    1
    63    38    60    1
    64    39    40    1
    65    39    45    2
    66    41    42    1
    67    41    49    1
    68    41    54    2
    69    43    44    1
    70    43    47    1
    71    45    46    1
    72    45    50    1
    73    47    49    2
    74    47    57    1
    75    48    50    2
    76    48    51    1
    77    49    56    1
    78    50    60    1
    79    51    63    2
    80    52    53    1
    81    52    56    2
    82    52    61    1
    83    54    55    1
    84    57    61    2
    85    58    59    1
    86    58    60    2
    87    58    63    1
    88    61    62    1
    89    63    64    1
    90    82    83    1
    91    82    84    1
    92    85    86    1
    93    85    87    1
    94    88    89    1
    95    88    90    1
    96    91    92    1
    97    91    93    1
@<TRIPOS>SUBSTRUCTURE
     1 RES1        1 GROUP             0 ****  ****    0  
     2 RES2       79 GROUP             0 ****  ****    0  
     3 RES3       80 GROUP             0 ****  ****    0  
     4 RES4       81 GROUP             0 ****  ****    0  
     5 RES5       82 GROUP             0 ****  ****    0  
     6 RES6       85 GROUP             0 ****  ****    0  
     7 RES7       88 GROUP             0 ****  ****    0  
     8 RES8       91 GROUP             0 ****  ****    0  
     9 RES9       94 GROUP             0 ****  ****    0  
    10 RES10      95 GROUP             0 ****  ****    0  
    11 RES11      96 GROUP             0 ****  ****    0  
@<TRIPOS>CRYSIN
   10.1005   15.0407   19.9398   90.0000   93.5800   90.0000   231     1
