####################################################################### 
# 
# This file contains crystal structure data downloaded from the 
# Cambridge Structural Database (CSD) hosted by the Cambridge 
# Crystallographic Data Centre (CCDC).
# 
# Full information about CCDC data access policies and citation 
# guidelines are available at http://www.ccdc.cam.ac.uk/access/V1 
# 
# Audit and citation data items may have been added by the CCDC. 
# Please retain this information to preserve the provenance of 
# this file and to allow appropriate attribution of the data. 
# 
#######################################################################
@<TRIPOS>MOLECULE
LORDUV
   329   402     1     0     0
SMALL
USER_CHARGES
****
Generated from the CSD

@<TRIPOS>ATOM
     1 C1       2.6476   9.7289   8.1357   C.2       1 RES1   0.0000
     2 H1       2.8985  10.2584   7.4134   H         1 RES1   0.0000
     3 C2       3.3003   8.5514   8.5514   C.2       1 RES1   0.0000
     4 C3       4.4336   7.9661   7.9661   C.2       1 RES1   0.0000
     5 N1       1.5909   9.9658   8.9602   N.2       1 RES1   0.0000
     6 O3       4.9794   8.4678   6.9048   O.co2     1 RES1   0.0000
     7 Cd1      0.0000  11.6125   8.9260   Cd        1 RES1   0.0000
     8 Cl1      0.0000  11.6125  11.6125   Cl        1 RES1   0.0000
     9 O1       7.8036   7.8036   7.8036   O.2       1 RES1   0.0000
    10 O2       5.7435   5.7435   5.7435   O.2       1 RES1   0.0000
    11 O4       0.0000  11.6125   6.5564   O.3       1 RES1   0.0000
    12 U1       6.7826   6.7826   6.7826   U         1 RES1   0.0000
    13 C1      -2.6476  13.4960   8.1357   C.2       1 RES1   0.0000
    14 H1      -2.8985  12.9665   7.4134   H         1 RES1   0.0000
    15 C2      -3.3003  14.6735   8.5514   C.2       1 RES1   0.0000
    16 C3      -4.4336  15.2588   7.9661   C.2       1 RES1   0.0000
    17 N1      -1.5909  13.2591   8.9602   N.2       1 RES1   0.0000
    18 O3      -4.9794  14.7571   6.9048   O.co2     1 RES1   0.0000
    19 C1      -2.6476   9.7289   8.1357   C.2       1 RES1   0.0000
    20 H1      -2.8985  10.2584   7.4134   H         1 RES1   0.0000
    21 C2      -3.3003   8.5514   8.5514   C.2       1 RES1   0.0000
    22 C3      -4.4336   7.9661   7.9661   C.2       1 RES1   0.0000
    23 N1      -1.5909   9.9658   8.9602   N.2       1 RES1   0.0000
    24 O3      -4.9794   8.4678   6.9048   O.co2     1 RES1   0.0000
    25 C1       2.6476  13.4960   8.1357   C.2       1 RES1   0.0000
    26 H1       2.8985  12.9665   7.4134   H         1 RES1   0.0000
    27 C2       3.3003  14.6735   8.5514   C.2       1 RES1   0.0000
    28 C3       4.4336  15.2588   7.9661   C.2       1 RES1   0.0000
    29 N1       1.5909  13.2591   8.9602   N.2       1 RES1   0.0000
    30 O3       4.9794  14.7571   6.9048   O.co2     1 RES1  -1.0000
    31 C1      -2.6476  15.0892   9.7289   C.2       1 RES1   0.0000
    32 H1      -2.8985  15.8115  10.2584   H         1 RES1   0.0000
    33 N1      -1.5909  14.2647   9.9658   N.2       1 RES1   0.0000
    34 O3      -4.9794  16.3201   8.4678   O.co2     1 RES1   0.0000
    35 Cd1      0.0000  14.2989  11.6125   Cd        1 RES1   0.0000
    36 O4       0.0000  16.6685  11.6125   O.3       1 RES1   0.0000
    37 C1       2.6476   8.1357   9.7289   C.2       1 RES1   0.0000
    38 H1       2.8985   7.4134  10.2584   H         1 RES1   0.0000
    39 N1       1.5909   8.9602   9.9658   N.2       1 RES1   0.0000
    40 O3       4.9794   6.9048   8.4678   O.co2     1 RES1   0.0000
    41 Cd1      0.0000   8.9260  11.6125   Cd        1 RES1   0.0000
    42 O4       0.0000   6.5564  11.6125   O.3       1 RES1   0.0000
    43 C1      -2.6476   8.1357   9.7289   C.2       1 RES1   0.0000
    44 H1      -2.8985   7.4134  10.2584   H         1 RES1   0.0000
    45 N1      -1.5909   8.9602   9.9658   N.2       1 RES1   0.0000
    46 O3      -4.9794   6.9048   8.4678   O.co2     1 RES1  -1.0000
    47 C1       2.6476  15.0892   9.7289   C.2       1 RES1   0.0000
    48 H1       2.8985  15.8115  10.2584   H         1 RES1   0.0000
    49 N1       1.5909  14.2647   9.9658   N.2       1 RES1   0.0000
    50 O3       4.9794  16.3201   8.4678   O.co2     1 RES1   0.0000
    51 C1       2.6476   8.1357  13.4960   C.2       1 RES1   0.0000
    52 H1       2.8985   7.4134  12.9665   H         1 RES1   0.0000
    53 C2       3.3003   8.5514  14.6735   C.2       1 RES1   0.0000
    54 C3       4.4336   7.9661  15.2588   C.2       1 RES1   0.0000
    55 N1       1.5909   8.9602  13.2591   N.2       1 RES1   0.0000
    56 O3       4.9794   6.9048  14.7571   O.co2     1 RES1   0.0000
    57 C1      -2.6476  15.0892  13.4960   C.2       1 RES1   0.0000
    58 H1      -2.8985  15.8115  12.9665   H         1 RES1   0.0000
    59 C2      -3.3003  14.6735  14.6735   C.2       1 RES1   0.0000
    60 C3      -4.4336  15.2588  15.2588   C.2       1 RES1   0.0000
    61 N1      -1.5909  14.2647  13.2591   N.2       1 RES1   0.0000
    62 O3      -4.9794  16.3201  14.7571   O.co2     1 RES1   0.0000
    63 C1      -2.6476  13.4960  15.0892   C.2       1 RES1   0.0000
    64 H1      -2.8985  12.9665  15.8115   H         1 RES1   0.0000
    65 N1      -1.5909  13.2591  14.2647   N.2       1 RES1   0.0000
    66 O3      -4.9794  14.7571  16.3201   O.co2     1 RES1  -1.0000
    67 Cd1      0.0000  11.6125  14.2989   Cd        1 RES1   0.0000
    68 O4       0.0000  11.6125  16.6685   O.3       1 RES1   0.0000
    69 C1       2.6476   9.7289  15.0892   C.2       1 RES1   0.0000
    70 H1       2.8985  10.2584  15.8115   H         1 RES1   0.0000
    71 N1       1.5909   9.9658  14.2647   N.2       1 RES1   0.0000
    72 O3       4.9794   8.4678  16.3201   O.co2     1 RES1   0.0000
    73 C1       2.6476  15.0892  13.4960   C.2       1 RES1   0.0000
    74 H1       2.8985  15.8115  12.9665   H         1 RES1   0.0000
    75 C2       3.3003  14.6735  14.6735   C.2       1 RES1   0.0000
    76 C3       4.4336  15.2588  15.2588   C.2       1 RES1   0.0000
    77 N1       1.5909  14.2647  13.2591   N.2       1 RES1   0.0000
    78 O3       4.9794  16.3201  14.7571   O.co2     1 RES1   0.0000
    79 C1      -2.6476   8.1357  13.4960   C.2       1 RES1   0.0000
    80 H1      -2.8985   7.4134  12.9665   H         1 RES1   0.0000
    81 C2      -3.3003   8.5514  14.6735   C.2       1 RES1   0.0000
    82 C3      -4.4336   7.9661  15.2588   C.2       1 RES1   0.0000
    83 N1      -1.5909   8.9602  13.2591   N.2       1 RES1   0.0000
    84 O3      -4.9794   6.9048  14.7571   O.co2     1 RES1   0.0000
    85 C1       2.6476  13.4960  15.0892   C.2       1 RES1   0.0000
    86 H1       2.8985  12.9665  15.8115   H         1 RES1   0.0000
    87 N1       1.5909  13.2591  14.2647   N.2       1 RES1   0.0000
    88 O3       4.9794  14.7571  16.3201   O.co2     1 RES1   0.0000
    89 C1      -2.6476   9.7289  15.0892   C.2       1 RES1   0.0000
    90 H1      -2.8985  10.2584  15.8115   H         1 RES1   0.0000
    91 N1      -1.5909   9.9658  14.2647   N.2       1 RES1   0.0000
    92 O3      -4.9794   8.4678  16.3201   O.co2     1 RES1   0.0000
    93 C1      -9.7289   2.6476   8.1357   C.2       1 RES1   0.0000
    94 H1     -10.2584   2.8985   7.4134   H         1 RES1   0.0000
    95 C2      -8.5514   3.3003   8.5514   C.2       1 RES1   0.0000
    96 C3      -7.9661   4.4336   7.9661   C.2       1 RES1   0.0000
    97 N1      -9.9658   1.5909   8.9602   N.2       1 RES1   0.0000
    98 O3      -8.4678   4.9794   6.9048   O.co2     1 RES1   0.0000
    99 Cd1    -11.6125   0.0000   8.9260   Cd        1 RES1   0.0000
   100 Cl1    -11.6125   0.0000  11.6125   Cl        1 RES1   0.0000
   101 O1      -7.8036   7.8036   7.8036   O.2       1 RES1   0.0000
   102 O2      -5.7435   5.7435   5.7435   O.2       1 RES1   0.0000
   103 O4     -11.6125   0.0000   6.5564   O.3       1 RES1   0.0000
   104 U1      -6.7826   6.7826   6.7826   U         1 RES1   0.0000
   105 C1     -13.4960  -2.6476   8.1357   C.2       1 RES1   0.0000
   106 H1     -12.9665  -2.8985   7.4134   H         1 RES1   0.0000
   107 C2     -14.6735  -3.3003   8.5514   C.2       1 RES1   0.0000
   108 C3     -15.2588  -4.4336   7.9661   C.2       1 RES1   0.0000
   109 N1     -13.2591  -1.5909   8.9602   N.2       1 RES1   0.0000
   110 O3     -14.7571  -4.9794   6.9048   O.co2     1 RES1   0.0000
   111 C1      -9.7289  -2.6476   8.1357   C.2       1 RES1   0.0000
   112 H1     -10.2584  -2.8985   7.4134   H         1 RES1   0.0000
   113 C2      -8.5514  -3.3003   8.5514   C.2       1 RES1   0.0000
   114 C3      -7.9661  -4.4336   7.9661   C.2       1 RES1   0.0000
   115 N1      -9.9658  -1.5909   8.9602   N.2       1 RES1   0.0000
   116 O3      -8.4678  -4.9794   6.9048   O.co2     1 RES1   0.0000
   117 C1     -13.4960   2.6476   8.1357   C.2       1 RES1   0.0000
   118 H1     -12.9665   2.8985   7.4134   H         1 RES1   0.0000
   119 C2     -14.6735   3.3003   8.5514   C.2       1 RES1   0.0000
   120 C3     -15.2588   4.4336   7.9661   C.2       1 RES1   0.0000
   121 N1     -13.2591   1.5909   8.9602   N.2       1 RES1   0.0000
   122 O3     -14.7571   4.9794   6.9048   O.co2     1 RES1  -1.0000
   123 C1     -15.0892  -2.6476   9.7289   C.2       1 RES1   0.0000
   124 H1     -15.8115  -2.8985  10.2584   H         1 RES1   0.0000
   125 N1     -14.2647  -1.5909   9.9658   N.2       1 RES1   0.0000
   126 O3     -16.3201  -4.9794   8.4678   O.co2     1 RES1  -1.0000
   127 Cd1    -14.2989   0.0000  11.6125   Cd        1 RES1   0.0000
   128 O4     -16.6685   0.0000  11.6125   O.3       1 RES1   0.0000
   129 C1      -8.1357   2.6476   9.7289   C.2       1 RES1   0.0000
   130 H1      -7.4134   2.8985  10.2584   H         1 RES1   0.0000
   131 N1      -8.9602   1.5909   9.9658   N.2       1 RES1   0.0000
   132 O3      -6.9048   4.9794   8.4678   O.co2     1 RES1   0.0000
   133 Cd1     -8.9260   0.0000  11.6125   Cd        1 RES1   0.0000
   134 O4      -6.5564   0.0000  11.6125   O.3       1 RES1   0.0000
   135 C1      -8.1357  -2.6476   9.7289   C.2       1 RES1   0.0000
   136 H1      -7.4134  -2.8985  10.2584   H         1 RES1   0.0000
   137 N1      -8.9602  -1.5909   9.9658   N.2       1 RES1   0.0000
   138 O3      -6.9048  -4.9794   8.4678   O.co2     1 RES1   0.0000
   139 C1     -15.0892   2.6476   9.7289   C.2       1 RES1   0.0000
   140 H1     -15.8115   2.8985  10.2584   H         1 RES1   0.0000
   141 N1     -14.2647   1.5909   9.9658   N.2       1 RES1   0.0000
   142 O3     -16.3201   4.9794   8.4678   O.co2     1 RES1   0.0000
   143 C1      -8.1357   2.6476  13.4960   C.2       1 RES1   0.0000
   144 H1      -7.4134   2.8985  12.9665   H         1 RES1   0.0000
   145 C2      -8.5514   3.3003  14.6735   C.2       1 RES1   0.0000
   146 C3      -7.9661   4.4336  15.2588   C.2       1 RES1   0.0000
   147 N1      -8.9602   1.5909  13.2591   N.2       1 RES1   0.0000
   148 O3      -6.9048   4.9794  14.7571   O.co2     1 RES1   0.0000
   149 C1     -15.0892  -2.6476  13.4960   C.2       1 RES1   0.0000
   150 H1     -15.8115  -2.8985  12.9665   H         1 RES1   0.0000
   151 C2     -14.6735  -3.3003  14.6735   C.2       1 RES1   0.0000
   152 C3     -15.2588  -4.4336  15.2588   C.2       1 RES1   0.0000
   153 N1     -14.2647  -1.5909  13.2591   N.2       1 RES1   0.0000
   154 O3     -16.3201  -4.9794  14.7571   O.co2     1 RES1   0.0000
   155 C1     -13.4960  -2.6476  15.0892   C.2       1 RES1   0.0000
   156 H1     -12.9665  -2.8985  15.8115   H         1 RES1   0.0000
   157 N1     -13.2591  -1.5909  14.2647   N.2       1 RES1   0.0000
   158 O3     -14.7571  -4.9794  16.3201   O.co2     1 RES1   0.0000
   159 Cd1    -11.6125   0.0000  14.2989   Cd        1 RES1   0.0000
   160 O4     -11.6124   0.0000  16.6685   O.3       1 RES1   0.0000
   161 C1      -9.7289   2.6476  15.0892   C.2       1 RES1   0.0000
   162 H1     -10.2584   2.8985  15.8115   H         1 RES1   0.0000
   163 N1      -9.9658   1.5909  14.2647   N.2       1 RES1   0.0000
   164 O3      -8.4678   4.9794  16.3201   O.co2     1 RES1   0.0000
   165 C1     -15.0892   2.6476  13.4960   C.2       1 RES1   0.0000
   166 H1     -15.8115   2.8985  12.9665   H         1 RES1   0.0000
   167 C2     -14.6735   3.3003  14.6735   C.2       1 RES1   0.0000
   168 C3     -15.2588   4.4336  15.2588   C.2       1 RES1   0.0000
   169 N1     -14.2647   1.5909  13.2591   N.2       1 RES1   0.0000
   170 O3     -16.3201   4.9794  14.7571   O.co2     1 RES1  -1.0000
   171 C1      -8.1357  -2.6476  13.4960   C.2       1 RES1   0.0000
   172 H1      -7.4134  -2.8985  12.9665   H         1 RES1   0.0000
   173 C2      -8.5514  -3.3003  14.6735   C.2       1 RES1   0.0000
   174 C3      -7.9661  -4.4336  15.2588   C.2       1 RES1   0.0000
   175 N1      -8.9602  -1.5909  13.2591   N.2       1 RES1   0.0000
   176 O3      -6.9048  -4.9794  14.7571   O.co2     1 RES1  -1.0000
   177 C1     -13.4960   2.6476  15.0892   C.2       1 RES1   0.0000
   178 H1     -12.9665   2.8985  15.8115   H         1 RES1   0.0000
   179 N1     -13.2591   1.5909  14.2647   N.2       1 RES1   0.0000
   180 O3     -14.7571   4.9794  16.3201   O.co2     1 RES1   0.0000
   181 C1      -9.7289  -2.6476  15.0892   C.2       1 RES1   0.0000
   182 H1     -10.2584  -2.8985  15.8115   H         1 RES1   0.0000
   183 N1      -9.9658  -1.5909  14.2647   N.2       1 RES1   0.0000
   184 O3      -8.4678  -4.9794  16.3201   O.co2     1 RES1   0.0000
   185 C1      13.4960   2.6476   8.1357   C.2       1 RES1   0.0000
   186 H1      12.9665   2.8985   7.4134   H         1 RES1   0.0000
   187 C2      14.6735   3.3003   8.5514   C.2       1 RES1   0.0000
   188 C3      15.2588   4.4336   7.9661   C.2       1 RES1   0.0000
   189 N1      13.2591   1.5909   8.9602   N.2       1 RES1   0.0000
   190 O3      14.7571   4.9794   6.9048   O.co2     1 RES1   0.0000
   191 Cd1     11.6125   0.0000   8.9260   Cd        1 RES1   0.0000
   192 Cl1     11.6125   0.0000  11.6125   Cl        1 RES1   0.0000
   193 O1      15.4213   7.8036   7.8036   O.2       1 RES1   0.0000
   194 O2      17.4814   5.7435   5.7435   O.2       1 RES1   0.0000
   195 O4      11.6125   0.0000   6.5564   O.3       1 RES1   0.0000
   196 U1      16.4423   6.7826   6.7826   U         1 RES1   0.0000
   197 C1       9.7289  -2.6476   8.1357   C.2       1 RES1   0.0000
   198 H1      10.2584  -2.8985   7.4134   H         1 RES1   0.0000
   199 C2       8.5514  -3.3003   8.5514   C.2       1 RES1   0.0000
   200 C3       7.9661  -4.4336   7.9661   C.2       1 RES1   0.0000
   201 N1       9.9658  -1.5909   8.9602   N.2       1 RES1   0.0000
   202 O3       8.4678  -4.9794   6.9048   O.co2     1 RES1   0.0000
   203 C1      13.4960  -2.6476   8.1357   C.2       1 RES1   0.0000
   204 H1      12.9665  -2.8985   7.4134   H         1 RES1   0.0000
   205 C2      14.6735  -3.3003   8.5514   C.2       1 RES1   0.0000
   206 C3      15.2588  -4.4336   7.9661   C.2       1 RES1   0.0000
   207 N1      13.2591  -1.5909   8.9602   N.2       1 RES1   0.0000
   208 O3      14.7571  -4.9794   6.9048   O.co2     1 RES1  -1.0000
   209 C1       9.7289   2.6476   8.1357   C.2       1 RES1   0.0000
   210 H1      10.2584   2.8985   7.4134   H         1 RES1   0.0000
   211 C2       8.5514   3.3003   8.5514   C.2       1 RES1   0.0000
   212 C3       7.9661   4.4336   7.9661   C.2       1 RES1   0.0000
   213 N1       9.9658   1.5909   8.9602   N.2       1 RES1   0.0000
   214 O3       8.4678   4.9794   6.9048   O.co2     1 RES1   0.0000
   215 C1       8.1357  -2.6476   9.7289   C.2       1 RES1   0.0000
   216 H1       7.4134  -2.8985  10.2584   H         1 RES1   0.0000
   217 N1       8.9602  -1.5909   9.9658   N.2       1 RES1   0.0000
   218 O3       6.9048  -4.9794   8.4678   O.co2     1 RES1  -1.0000
   219 Cd1      8.9260   0.0000  11.6125   Cd        1 RES1   0.0000
   220 O4       6.5564   0.0000  11.6125   O.3       1 RES1   0.0000
   221 C1      15.0892   2.6476   9.7289   C.2       1 RES1   0.0000
   222 H1      15.8115   2.8985  10.2584   H         1 RES1   0.0000
   223 N1      14.2647   1.5909   9.9658   N.2       1 RES1   0.0000
   224 O3      16.3201   4.9794   8.4678   O.co2     1 RES1   0.0000
   225 Cd1     14.2989   0.0000  11.6125   Cd        1 RES1   0.0000
   226 O4      16.6685   0.0000  11.6125   O.3       1 RES1   0.0000
   227 C1      15.0892  -2.6476   9.7289   C.2       1 RES1   0.0000
   228 H1      15.8115  -2.8985  10.2584   H         1 RES1   0.0000
   229 N1      14.2647  -1.5909   9.9658   N.2       1 RES1   0.0000
   230 O3      16.3201  -4.9794   8.4678   O.co2     1 RES1   0.0000
   231 C1       8.1357   2.6476   9.7289   C.2       1 RES1   0.0000
   232 H1       7.4134   2.8985  10.2584   H         1 RES1   0.0000
   233 N1       8.9602   1.5909   9.9658   N.2       1 RES1   0.0000
   234 O3       6.9048   4.9794   8.4678   O.co2     1 RES1   0.0000
   235 C1      15.0892   2.6476  13.4960   C.2       1 RES1   0.0000
   236 H1      15.8115   2.8985  12.9665   H         1 RES1   0.0000
   237 C2      14.6735   3.3003  14.6735   C.2       1 RES1   0.0000
   238 C3      15.2588   4.4336  15.2588   C.2       1 RES1   0.0000
   239 N1      14.2647   1.5909  13.2591   N.2       1 RES1   0.0000
   240 O3      16.3201   4.9794  14.7571   O.co2     1 RES1   0.0000
   241 C1       8.1357  -2.6476  13.4960   C.2       1 RES1   0.0000
   242 H1       7.4134  -2.8985  12.9665   H         1 RES1   0.0000
   243 C2       8.5514  -3.3003  14.6735   C.2       1 RES1   0.0000
   244 C3       7.9661  -4.4336  15.2588   C.2       1 RES1   0.0000
   245 N1       8.9602  -1.5909  13.2591   N.2       1 RES1   0.0000
   246 O3       6.9048  -4.9794  14.7571   O.co2     1 RES1   0.0000
   247 C1       9.7289  -2.6476  15.0892   C.2       1 RES1   0.0000
   248 H1      10.2584  -2.8985  15.8115   H         1 RES1   0.0000
   249 N1       9.9658  -1.5909  14.2647   N.2       1 RES1   0.0000
   250 O3       8.4678  -4.9794  16.3201   O.co2     1 RES1   0.0000
   251 Cd1     11.6125   0.0000  14.2989   Cd        1 RES1   0.0000
   252 O4      11.6125   0.0000  16.6685   O.3       1 RES1   0.0000
   253 C1      13.4960   2.6476  15.0892   C.2       1 RES1   0.0000
   254 H1      12.9665   2.8985  15.8115   H         1 RES1   0.0000
   255 N1      13.2591   1.5909  14.2647   N.2       1 RES1   0.0000
   256 O3      14.7571   4.9794  16.3201   O.co2     1 RES1  -1.0000
   257 C1       8.1357   2.6476  13.4960   C.2       1 RES1   0.0000
   258 H1       7.4134   2.8985  12.9665   H         1 RES1   0.0000
   259 C2       8.5514   3.3003  14.6735   C.2       1 RES1   0.0000
   260 C3       7.9661   4.4336  15.2588   C.2       1 RES1   0.0000
   261 N1       8.9602   1.5909  13.2591   N.2       1 RES1   0.0000
   262 O3       6.9048   4.9794  14.7571   O.co2     1 RES1   0.0000
   263 C1      15.0892  -2.6476  13.4960   C.2       1 RES1   0.0000
   264 H1      15.8115  -2.8985  12.9665   H         1 RES1   0.0000
   265 C2      14.6735  -3.3003  14.6735   C.2       1 RES1   0.0000
   266 C3      15.2588  -4.4336  15.2588   C.2       1 RES1   0.0000
   267 N1      14.2647  -1.5909  13.2591   N.2       1 RES1   0.0000
   268 O3      16.3201  -4.9794  14.7571   O.co2     1 RES1   0.0000
   269 C1       9.7289   2.6476  15.0892   C.2       1 RES1   0.0000
   270 H1      10.2584   2.8985  15.8115   H         1 RES1   0.0000
   271 N1       9.9658   1.5909  14.2647   N.2       1 RES1   0.0000
   272 O3       8.4678   4.9794  16.3201   O.co2     1 RES1   0.0000
   273 C1      13.4960  -2.6476  15.0892   C.2       1 RES1   0.0000
   274 H1      12.9665  -2.8985  15.8115   H         1 RES1   0.0000
   275 N1      13.2591  -1.5909  14.2647   N.2       1 RES1   0.0000
   276 O3      14.7571  -4.9794  16.3201   O.co2     1 RES1  -1.0000
   277 O1      -7.8036  15.4213   7.8036   O.2       1 RES1   0.0000
   278 O2      -5.7435  17.4814   5.7435   O.2       1 RES1   0.0000
   279 U1      -6.7826  16.4423   6.7826   U         1 RES1   0.0000
   280 O1       7.8036  -7.8036   7.8036   O.2       1 RES1   0.0000
   281 O2       5.7435  -5.7435   5.7435   O.2       1 RES1   0.0000
   282 U1       6.7826  -6.7826   6.7826   U         1 RES1   0.0000
   283 O1       7.8036  15.4213   7.8036   O.2       1 RES1   0.0000
   284 O2       5.7435  17.4814   5.7435   O.2       1 RES1   0.0000
   285 U1       6.7826  16.4423   6.7826   U         1 RES1   0.0000
   286 O1       7.8036  15.4213  15.4213   O.2       1 RES1   0.0000
   287 O2       5.7435  17.4814  17.4814   O.2       1 RES1   0.0000
   288 U1       6.7826  16.4423  16.4423   U         1 RES1   0.0000
   289 O1       7.8036   7.8036  15.4213   O.2       1 RES1   0.0000
   290 O2       5.7435   5.7435  17.4814   O.2       1 RES1   0.0000
   291 U1       6.7826   6.7826  16.4423   U         1 RES1   0.0000
   292 O3       8.4678  18.2455   6.9048   O.3       1 RES1   0.0000
   293 O3      18.2455   6.9048   8.4678   O.3       1 RES1   0.0000
   294 O3      -6.9048  18.2455   8.4678   O.3       1 RES1   0.0000
   295 O3       4.9794  -6.9048   8.4678   O.3       1 RES1   0.0000
   296 O3       6.9048  18.2455  14.7571   O.3       1 RES1   0.0000
   297 O3       8.4678   6.9048   4.9794   O.3       1 RES1   0.0000
   298 O3      -6.9048   8.4678   4.9794   O.3       1 RES1   0.0000
   299 O3      16.3201   8.4678   4.9794   O.3       1 RES1   0.0000
   300 O3       6.9048   8.4678  18.2455   O.3       1 RES1   0.0000
   301 O3       6.9048  -8.4678   4.9794   O.3       1 RES1   0.0000
   302 O3       6.9048  14.7571   4.9794   O.3       1 RES1   0.0000
   303 O3       8.4678  16.3201  18.2455   O.3       1 RES1   0.0000
   304 O3      -8.4678  16.3201   4.9794   O.3       1 RES1   0.0000
   305 O3       8.4678  18.2455  16.3201   O.3       1 RES1   0.0000
   306 O3      18.2455   8.4678   6.9048   O.3       1 RES1   0.0000
   307 O3      -8.4678  18.2455   6.9048   O.3       1 RES1   0.0000
   308 O3       4.9794  -8.4678   6.9048   O.3       1 RES1   0.0000
   309 O3       6.9048  18.2455   8.4678   O.3       1 RES1   0.0000
   310 O3       6.9048   8.4678   4.9794   O.3       1 RES1   0.0000
   311 O3       6.9048  14.7571  18.2455   O.3       1 RES1   0.0000
   312 O3      -6.9048  14.7571   4.9794   O.3       1 RES1   0.0000
   313 O3      -8.4678   6.9048   4.9794   O.3       1 RES1   0.0000
   314 O3      14.7571   6.9048   4.9794   O.3       1 RES1   0.0000
   315 O3       8.4678   6.9048  18.2455   O.3       1 RES1   0.0000
   316 O3       8.4678  -6.9048   4.9794   O.3       1 RES1   0.0000
   317 O3       8.4678  16.3201   4.9794   O.3       1 RES1   0.0000
   318 U1     -16.4423   6.7826   6.7826   U         1 RES1   0.0000
   319 U1      -6.7826  -6.7826   6.7826   U         1 RES1   0.0000
   320 U1      16.4423  -6.7826   6.7826   U         1 RES1   0.0000
   321 U1     -16.4423  -6.7826   6.7826   U         1 RES1   0.0000
   322 U1     -16.4423  -6.7826  16.4423   U         1 RES1   0.0000
   323 U1       6.7826  -6.7826  16.4423   U         1 RES1   0.0000
   324 U1     -16.4423   6.7826  16.4423   U         1 RES1   0.0000
   325 U1      -6.7826   6.7826  16.4423   U         1 RES1   0.0000
   326 U1      16.4423   6.7826  16.4423   U         1 RES1   0.0000
   327 U1      -6.7826  -6.7826  16.4423   U         1 RES1   0.0000
   328 U1      -6.7826  16.4423  16.4423   U         1 RES1   0.0000
   329 U1      16.4423  -6.7826  16.4423   U         1 RES1   0.0000
@<TRIPOS>BOND
     1     1     2    1
     2     1     3    2
     3     1     5    1
     4     3     4    1
     5     3    37    1
     6     4     6   un
     7     4    40   un
     8     5     7    1
     9     5    39    1
    10     6    12    1
    11     7     8    1
    12     7    11    1
    13     7    17    1
    14     7    23    1
    15     7    29    1
    16     8    35    1
    17     8    41    1
    18     8    67    1
    19     9    12    2
    20    10    12    2
    21    12    40    1
    22    12   214    1
    23    12   234    1
    24    12   297    1
    25    12   310    1
    26    13    14    1
    27    13    15    2
    28    13    17    1
    29    15    16    1
    30    15    31    1
    31    16    18   un
    32    16    34   un
    33    17    33    1
    34    18   279    1
    35    19    20    1
    36    19    21    2
    37    19    23    1
    38    21    22    1
    39    21    43    1
    40    22    24   un
    41    22    46   un
    42    23    45    1
    43    24   104    1
    44    25    26    1
    45    25    27    2
    46    25    29    1
    47    27    28    1
    48    27    47    1
    49    28    30   un
    50    28    50   un
    51    29    49    1
    52    30   285    1
    53    31    32    1
    54    31    33    2
    55    33    35    1
    56    34   279    1
    57    35    36    1
    58    35    49    1
    59    35    61    1
    60    35    77    1
    61    37    38    1
    62    37    39    2
    63    39    41    1
    64    41    42    1
    65    41    45    1
    66    41    55    1
    67    41    83    1
    68    43    44    1
    69    43    45    2
    70    46   104    1
    71    47    48    1
    72    47    49    2
    73    50   285    1
    74    51    52    1
    75    51    53    2
    76    51    55    1
    77    53    54    1
    78    53    69    1
    79    54    56   un
    80    54    72   un
    81    55    71    1
    82    56   291    1
    83    57    58    1
    84    57    59    1
    85    57    61    2
    86    59    60    1
    87    59    63    2
    88    60    62   un
    89    60    66   un
    90    61    65    1
    91    62   328    1
    92    63    64    1
    93    63    65    1
    94    65    67    1
    95    66   328    1
    96    67    68    1
    97    67    71    1
    98    67    87    1
    99    67    91    1
   100    69    70    1
   101    69    71    2
   102    72   291    1
   103    73    74    1
   104    73    75    1
   105    73    77    2
   106    75    76    1
   107    75    85    2
   108    76    78   un
   109    76    88   un
   110    77    87    1
   111    78   288    1
   112    79    80    1
   113    79    81    2
   114    79    83    1
   115    81    82    1
   116    81    89    1
   117    82    84   un
   118    82    92   un
   119    83    91    1
   120    84   325    1
   121    85    86    1
   122    85    87    1
   123    88   288    1
   124    89    90    1
   125    89    91    2
   126    92   325    1
   127    93    94    1
   128    93    95    2
   129    93    97    1
   130    95    96    1
   131    95   129    1
   132    96    98   un
   133    96   132   un
   134    97    99    1
   135    97   131    1
   136    98   104    1
   137    99   100    1
   138    99   103    1
   139    99   109    1
   140    99   115    1
   141    99   121    1
   142   100   127    1
   143   100   133    1
   144   100   159    1
   145   101   104    2
   146   102   104    2
   147   104   132    1
   148   104   298    1
   149   104   313    1
   150   105   106    1
   151   105   107    2
   152   105   109    1
   153   107   108    1
   154   107   123    1
   155   108   110   un
   156   108   126   un
   157   109   125    1
   158   110   321    1
   159   111   112    1
   160   111   113    2
   161   111   115    1
   162   113   114    1
   163   113   135    1
   164   114   116   un
   165   114   138   un
   166   115   137    1
   167   116   319    1
   168   117   118    1
   169   117   119    2
   170   117   121    1
   171   119   120    1
   172   119   139    1
   173   120   122   un
   174   120   142   un
   175   121   141    1
   176   122   318    1
   177   123   124    1
   178   123   125    2
   179   125   127    1
   180   126   321    1
   181   127   128    1
   182   127   141    1
   183   127   153    1
   184   127   169    1
   185   129   130    1
   186   129   131    2
   187   131   133    1
   188   133   134    1
   189   133   137    1
   190   133   147    1
   191   133   175    1
   192   135   136    1
   193   135   137    2
   194   138   319    1
   195   139   140    1
   196   139   141    2
   197   142   318    1
   198   143   144    1
   199   143   145    2
   200   143   147    1
   201   145   146    1
   202   145   161    1
   203   146   148   un
   204   146   164   un
   205   147   163    1
   206   148   325    1
   207   149   150    1
   208   149   151    1
   209   149   153    2
   210   151   152    1
   211   151   155    2
   212   152   154   un
   213   152   158   un
   214   153   157    1
   215   154   322    1
   216   155   156    1
   217   155   157    1
   218   157   159    1
   219   158   322    1
   220   159   160    1
   221   159   163    1
   222   159   179    1
   223   159   183    1
   224   161   162    1
   225   161   163    2
   226   164   325    1
   227   165   166    1
   228   165   167    1
   229   165   169    2
   230   167   168    1
   231   167   177    2
   232   168   170   un
   233   168   180   un
   234   169   179    1
   235   170   324    1
   236   171   172    1
   237   171   173    2
   238   171   175    1
   239   173   174    1
   240   173   181    1
   241   174   176   un
   242   174   184   un
   243   175   183    1
   244   176   327    1
   245   177   178    1
   246   177   179    1
   247   180   324    1
   248   181   182    1
   249   181   183    2
   250   184   327    1
   251   185   186    1
   252   185   187    2
   253   185   189    1
   254   187   188    1
   255   187   221    1
   256   188   190   un
   257   188   224   un
   258   189   191    1
   259   189   223    1
   260   190   196    1
   261   191   192    1
   262   191   195    1
   263   191   201    1
   264   191   207    1
   265   191   213    1
   266   192   219    1
   267   192   225    1
   268   192   251    1
   269   193   196    2
   270   194   196    2
   271   196   224    1
   272   196   293    1
   273   196   299    1
   274   196   306    1
   275   196   314    1
   276   197   198    1
   277   197   199    1
   278   197   201    2
   279   199   200    1
   280   199   215    2
   281   200   202   un
   282   200   218   un
   283   201   217    1
   284   202   282    1
   285   203   204    1
   286   203   205    2
   287   203   207    1
   288   205   206    1
   289   205   227    1
   290   206   208   un
   291   206   230   un
   292   207   229    1
   293   208   320    1
   294   209   210    1
   295   209   211    2
   296   209   213    1
   297   211   212    1
   298   211   231    1
   299   212   214   un
   300   212   234   un
   301   213   233    1
   302   215   216    1
   303   215   217    1
   304   217   219    1
   305   218   282    1
   306   219   220    1
   307   219   233    1
   308   219   245    1
   309   219   261    1
   310   221   222    1
   311   221   223    2
   312   223   225    1
   313   225   226    1
   314   225   229    1
   315   225   239    1
   316   225   267    1
   317   227   228    1
   318   227   229    2
   319   230   320    1
   320   231   232    1
   321   231   233    2
   322   235   236    1
   323   235   237    1
   324   235   239    2
   325   237   238    1
   326   237   253    2
   327   238   240   un
   328   238   256   un
   329   239   255    1
   330   240   326    1
   331   241   242    1
   332   241   243    2
   333   241   245    1
   334   243   244    1
   335   243   247    1
   336   244   246   un
   337   244   250   un
   338   245   249    1
   339   246   323    1
   340   247   248    1
   341   247   249    2
   342   249   251    1
   343   250   323    1
   344   251   252    1
   345   251   255    1
   346   251   271    1
   347   251   275    1
   348   253   254    1
   349   253   255    1
   350   256   326    1
   351   257   258    1
   352   257   259    2
   353   257   261    1
   354   259   260    1
   355   259   269    1
   356   260   262   un
   357   260   272   un
   358   261   271    1
   359   262   291    1
   360   263   264    1
   361   263   265    1
   362   263   267    2
   363   265   266    1
   364   265   273    2
   365   266   268   un
   366   266   276   un
   367   267   275    1
   368   268   329    1
   369   269   270    1
   370   269   271    2
   371   272   291    1
   372   273   274    1
   373   273   275    1
   374   276   329    1
   375   277   279    2
   376   278   279    2
   377   279   294    1
   378   279   304    1
   379   279   307    1
   380   279   312    1
   381   280   282    2
   382   281   282    2
   383   282   295    1
   384   282   301    1
   385   282   308    1
   386   282   316    1
   387   283   285    2
   388   284   285    2
   389   285   292    1
   390   285   302    1
   391   285   309    1
   392   285   317    1
   393   286   288    2
   394   287   288    2
   395   288   296    1
   396   288   303    1
   397   288   305    1
   398   288   311    1
   399   289   291    2
   400   290   291    2
   401   291   300    1
   402   291   315    1
@<TRIPOS>SUBSTRUCTURE
     1 RES1        1 GROUP             0 ****  ****    0  
@<TRIPOS>CRYSIN
   23.2249   23.2249   23.2249   90.0000   90.0000   90.0000   221     1
