####################################################################### 
# 
# This file contains crystal structure data downloaded from the 
# Cambridge Structural Database (CSD) hosted by the Cambridge 
# Crystallographic Data Centre (CCDC).
# 
# Full information about CCDC data access policies and citation 
# guidelines are available at http://www.ccdc.cam.ac.uk/access/V1 
# 
# Audit and citation data items may have been added by the CCDC. 
# Please retain this information to preserve the provenance of 
# this file and to allow appropriate attribution of the data. 
# 
#######################################################################
@<TRIPOS>MOLECULE
XALMAC
   223   229     8     0     0
SMALL
USER_CHARGES
****
Generated from the CSD

@<TRIPOS>ATOM
     1 O1      12.7589  12.6737  23.1084   O.3       1 RES1   0.0000
     2 H1A     12.7154  13.5415  23.1035   H         1 RES1   0.0000
     3 H1B     12.6508  12.4540  23.9435   H         1 RES1   0.0000
     4 Zn1      6.7316   2.7009   5.1116   Zn        2 RES2   0.0000
     5 Zn2      3.9168   3.7994   6.6294   Zn        2 RES2  -2.0000
     6 Zn3      9.2575  10.4919  20.4890   Zn        2 RES2   0.0000
     7 O1_1    -5.3781   2.6130   4.3137   O.co2     2 RES2   0.0000
     8 N1_1     0.7542  -2.0035   0.4677   N.pl3     2 RES2   0.0000
     9 H1_1     1.5987  -2.1496   0.2694   H         2 RES2   0.0000
    10 C1_1    -5.3157   1.4468   4.2631   C.2       2 RES2   0.0000
    11 O2_1    -6.2105   0.7934   4.8097   O.co2     2 RES2   0.0000
    12 N2_1    -1.4144  -2.0871   0.3752   N.2       2 RES2   0.0000
    13 C3_1    -3.0637   1.4151   3.2337   C.2       2 RES2   0.0000
    14 H3_1    -2.9724   2.3223   3.4962   H         2 RES2   0.0000
    15 O3_1    -1.0032  -6.6052  -5.0286   O.co2     2 RES2   0.0000
    16 C4_1    -1.9918   0.7895   2.5185   C.2       2 RES2   0.0000
    17 H4_1    -1.1992   1.2706   2.3110   H         2 RES2   0.0000
    18 O4_1     1.0672  -7.1050  -4.3745   O.co2     2 RES2   0.0000
    19 C5_1    -2.1424  -0.5199   2.1405   C.2       2 RES2   0.0000
    20 O5_1     3.5829   2.0025   5.9420   O.co2     2 RES2   0.0000
    21 C6_1    -3.3218  -1.2120   2.4547   C.2       2 RES2   0.0000
    22 H6_1    -3.4389  -2.1085   2.1601   H         2 RES2   0.0000
    23 O6_1     5.1551   1.8291   4.3405   O.co2     2 RES2   0.0000
    24 C7_1    -4.3355  -0.5803   3.2056   C.2       2 RES2   0.0000
    25 H7_1    -5.1064  -1.0643   3.4787   H         2 RES2   0.0000
    26 C8_1    -1.0690  -1.2105   1.3921   C.2       2 RES2   0.0000
    27 C9_1     0.2609  -1.1901   1.4866   C.2       2 RES2   0.0000
    28 C10_1   -0.2847  -2.5034  -0.1303   C.2       2 RES2   0.0000
    29 C11_1   -0.1758  -3.4150  -1.2618   C.2       2 RES2   0.0000
    30 C12_1    0.9807  -4.1462  -1.4483   C.2       2 RES2   0.0000
    31 H12_1    1.7354  -3.9832  -0.8960   H         2 RES2   0.0000
    32 C13_1    1.0495  -5.1287  -2.4547   C.2       2 RES2   0.0000
    33 H13_1    1.8177  -5.6812  -2.5373   H         2 RES2   0.0000
    34 C14_1   -0.0184  -5.2767  -3.3231   C.2       2 RES2   0.0000
    35 C15_1   -1.1464  -4.5215  -3.1561   C.2       2 RES2   0.0000
    36 H15_1   -1.8805  -4.6394  -3.7477   H         2 RES2   0.0000
    37 C16_1   -1.2350  -3.5801  -2.1257   C.2       2 RES2   0.0000
    38 H16_1   -2.0211  -3.0551  -2.0231   H         2 RES2   0.0000
    39 C17_1   -0.0039  -6.3891  -4.3369   C.2       2 RES2   0.0000
    40 C18_1    1.2344  -0.5147   2.3321   C.2       2 RES2   0.0000
    41 C19_1    0.9192  -0.2305   3.6935   C.2       2 RES2   0.0000
    42 H19_1    0.0893  -0.5105   4.0630   H         2 RES2   0.0000
    43 C20_1    1.8283   0.4475   4.4623   C.2       2 RES2   0.0000
    44 H20_1    1.5940   0.6905   5.3498   H         2 RES2   0.0000
    45 C21_1    3.0653   0.7892   3.9796   C.2       2 RES2   0.0000
    46 C22_1    3.4288   0.4830   2.6999   C.2       2 RES2   0.0000
    47 H22_1    4.2905   0.7105   2.3709   H         2 RES2   0.0000
    48 C23_1    2.4776  -0.1921   1.8672   C.2       2 RES2   0.0000
    49 H23_1    2.7155  -0.4174   0.9760   H         2 RES2   0.0000
    50 C24_1    4.0006   1.6093   4.8276   C.2       2 RES2   0.0000
    51 C2_1    -4.1863   0.7636   3.5428   C.2       2 RES2   0.0000
    52 O1_2    16.3155   4.6783   7.2662   O.co2     2 RES2   0.0000
    53 C1_2    14.8949   4.7192   9.1645   C.2       2 RES2   0.0000
    54 N1_2    12.0089   7.2285  12.4953   N.2       2 RES2   0.0000
    55 O2_2    16.7557   3.2415   8.9104   O.co2     2 RES2   0.0000
    56 N2_2     9.8415   7.2893  12.1990   N.pl3     2 RES2   0.0000
    57 H2_2     8.9944   7.4948  12.3201   H         2 RES2   0.0000
    58 C2_2    14.8514   4.6134  10.5518   C.2       2 RES2   0.0000
    59 H2A_2   15.5148   4.1165  11.0142   H         2 RES2   0.0000
    60 O3_2     6.9624   2.9898   7.0320   O.co2     2 RES2   0.0000
    61 C3_2    13.8375   5.2363  11.2542   C.2       2 RES2   0.0000
    62 H3_2    13.8508   5.2299  12.2052   H         2 RES2   0.0000
    63 O4_2     5.4133   4.4676   7.6917   O.co2     2 RES2   0.0000
    64 C4_2    12.7845   5.8812  10.5812   C.2       2 RES2   0.0000
    65 O5_2    11.2349  11.0842  18.3692   O.co2     2 RES2   0.0000
    66 C5_2    12.7938   5.9163   9.1977   C.2       2 RES2   0.0000
    67 H5_2    12.0714   6.3160   8.7265   H         2 RES2   0.0000
    68 O6_2     9.2160  10.1989  18.5544   O.co2     2 RES2  -1.0000
    69 C7_2    11.7044   6.5065  11.3434   C.2       2 RES2   0.0000
    70 C8_2    10.3686   6.5131  11.1957   C.2       2 RES2   0.0000
    71 C9_2    10.8708   7.6670  12.9503   C.2       2 RES2   0.0000
    72 C10_2    9.4230   5.8893  10.2432   C.2       2 RES2   0.0000
    73 C11_2    9.6826   4.6456   9.6984   C.2       2 RES2   0.0000
    74 H11_2   10.4931   4.1988   9.9111   H         2 RES2   0.0000
    75 C12_2    8.7852   4.0559   8.8580   C.2       2 RES2   0.0000
    76 H12_2    8.9911   3.2147   8.4657   H         2 RES2   0.0000
    77 C13_2    7.5824   4.6664   8.5719   C.2       2 RES2   0.0000
    78 C14_2    7.3292   5.9383   9.1009   C.2       2 RES2   0.0000
    79 H14_2    6.5173   6.3833   8.8863   H         2 RES2   0.0000
    80 C15_2    8.2297   6.5422   9.9107   C.2       2 RES2   0.0000
    81 H15_2    8.0511   7.4078  10.2568   H         2 RES2   0.0000
    82 C16_2    6.5759   4.0000   7.6984   C.2       2 RES2   0.0000
    83 C17_2   10.6877   8.4382  14.1727   C.2       2 RES2   0.0000
    84 C18_2   11.7640   9.1319  14.7051   C.2       2 RES2   0.0000
    85 H18_2   12.5994   9.1387  14.2535   H         2 RES2   0.0000
    86 C19_2   11.6131   9.8075  15.8954   C.2       2 RES2   0.0000
    87 H19_2   12.3514  10.2795  16.2600   H         2 RES2   0.0000
    88 C20_2   10.3919   9.8122  16.5720   C.2       2 RES2   0.0000
    89 C21_2    9.3150   9.1427  16.0042   C.2       2 RES2   0.0000
    90 H21_2    8.4725   9.1499  16.4421   H         2 RES2   0.0000
    91 C22_2    9.4587   8.4696  14.8128   C.2       2 RES2   0.0000
    92 H22_2    8.7131   8.0233  14.4281   H         2 RES2   0.0000
    93 C23_2   10.2858  10.4300  17.9388   C.2       2 RES2   0.0000
    94 C24_2   16.0803   4.1616   8.4189   C.2       2 RES2   0.0000
    95 C6_2    13.8601   5.3674   8.5007   C.2       2 RES2   0.0000
    96 H6_2    13.8840   5.4361   7.5534   H         2 RES2   0.0000
    97 O1_3     6.3770   9.6293  19.7986   O.co2     2 RES2   0.0000
    98 C1_3     6.6810   9.3895  20.9605   C.2       2 RES2   0.0000
    99 N1_3     1.1982   5.4890  25.2423   N.2       2 RES2   0.0000
   100 O2_3     7.8068   9.6567  21.5059   O.co2     2 RES2   0.0000
   101 N2_3     3.3525   5.7581  25.2295   N.pl3     2 RES2   0.0000
   102 H2_3     4.1998   5.6626  25.4484   H         2 RES2   0.0000
   103 C2_3     5.6964   8.6829  21.8341   C.2       2 RES2   0.0000
   104 O3_3    -3.0712   9.8737  21.3089   O.co2     2 RES2   0.0000
   105 C3_3     6.0769   8.0337  22.9861   C.2       2 RES2   0.0000
   106 H3_3     6.9942   8.0352  23.2346   H         2 RES2   0.0000
   107 O4_3    -3.6394   7.8358  20.6489   O.co2     2 RES2   0.0000
   108 C4_3     5.1675   7.3800  23.7907   C.2       2 RES2   0.0000
   109 H4_3     5.4618   6.9608  24.5920   H         2 RES2   0.0000
   110 O5_3     1.7616   0.8484  30.4888   O.co2     2 RES2   0.0000
   111 C5_3     3.8050   7.3276  23.4356   C.2       2 RES2   0.0000
   112 O6_3     3.9468   0.5888  29.9984   O.co2     2 RES2   0.0000
   113 C7_3     4.3449   8.6536  21.4663   C.2       2 RES2   0.0000
   114 H7_3     4.0568   9.0853  20.6700   H         2 RES2   0.0000
   115 C8_3     2.8713   6.5772  24.2607   C.2       2 RES2   0.0000
   116 C9_3     1.5110   6.3990  24.2632   C.2       2 RES2   0.0000
   117 C10_3    2.3328   5.1258  25.7881   C.2       2 RES2   0.0000
   118 C11_3    0.4259   7.0156  23.5020   C.2       2 RES2   0.0000
   119 C12_3    0.2299   8.3390  23.3845   C.2       2 RES2   0.0000
   120 H12_3    0.8532   8.9220  23.8034   H         2 RES2   0.0000
   121 C13_3   -0.8463   8.9140  22.6796   C.2       2 RES2   0.0000
   122 H13_3   -0.9526   9.8572  22.6315   H         2 RES2   0.0000
   123 C15_3   -1.7277   8.0738  22.0665   C.2       2 RES2   0.0000
   124 C16_3   -0.4703   6.1941  22.8737   C.2       2 RES2   0.0000
   125 H16_3   -0.3568   5.2515  22.9260   H         2 RES2   0.0000
   126 C17_3   -2.9035   8.6486  21.3028   C.2       2 RES2   0.0000
   127 C18_3    2.4733   4.1727  26.8635   C.2       2 RES2   0.0000
   128 C19_3    3.7318   3.6050  27.1751   C.2       2 RES2   0.0000
   129 H19_3    4.5070   3.8881  26.7061   H         2 RES2   0.0000
   130 C20_3    3.8383   2.6577  28.1381   C.2       2 RES2   0.0000
   131 H20_3    4.6887   2.2797  28.3307   H         2 RES2   0.0000
   132 C21_3    2.7064   2.2250  28.8602   C.2       2 RES2   0.0000
   133 C22_3    1.4644   2.8532  28.6259   C.2       2 RES2   0.0000
   134 H22_3    0.7036   2.6286  29.1488   H         2 RES2   0.0000
   135 C23_3    1.3708   3.7994  27.6247   C.2       2 RES2   0.0000
   136 H23_3    0.5307   4.2057  27.4489   H         2 RES2   0.0000
   137 C24_3    2.8066   1.1529  29.8436   C.2       2 RES2   0.0000
   138 C14_3   -1.5422   6.7142  22.1610   C.2       2 RES2   0.0000
   139 H14_3   -2.1544   6.1262  21.7351   H         2 RES2   0.0000
   140 C6_3     3.4026   7.9698  22.2990   C.2       2 RES2   0.0000
   141 H6_3     2.4836   7.9614  22.0554   H         2 RES2   0.0000
   142 Zn1     -7.2942   2.7009   5.1116   Zn        2 RES2   0.0000
   143 Zn1      4.2945  -1.2709  30.6546   Zn        2 RES2   0.0000
   144 Zn2      1.4797  -0.1723  32.1723   Zn        2 RES2   0.0000
   145 Zn2     17.9426   3.7994   6.6294   Zn        2 RES2   0.0000
   146 Zn3      0.8557  -8.9252  -5.0539   Zn        2 RES2   0.0000
   147 Zn3     -4.7683  10.4919  20.4890   Zn        2 RES2   0.0000
   148 O1_1     8.6477   2.6130   4.3137   O.3       2 RES2   0.0000
   149 O2_1     7.8153   0.7934   4.8097   O.3       2 RES2   0.0000
   150 O4_1     9.4690  12.3121  21.1684   O.3       2 RES2   0.0000
   151 O1_2     2.2897   4.6783   7.2662   O.3       2 RES2   0.0000
   152 O3_3    10.9546   9.8737  21.3089   O.3       2 RES2   0.0000
   153 O5_3     4.1987   4.8202   4.9459   O.3       2 RES2   0.0000
   154 O6_3     6.3839   4.5606   4.4555   O.3       2 RES2   0.0000
   155 C1_4     6.5086   9.4160  11.6297   C.2       3 RES3   0.0000
   156 H1_4     6.0102   8.6332  11.4244   H         3 RES3   0.0000
   157 O1_4     7.2265   9.9187  10.7434   O.2       3 RES3   0.0000
   158 N1_4     6.4108   9.9460  12.8838   N.am      3 RES3   0.0000
   159 C2_4     5.5932   9.2282  13.8902   C.3       3 RES3   0.0000
   160 H2A_4    4.9692   9.8538  14.3132   H         3 RES3   0.0000
   161 H2B_4    6.1813   8.8419  14.5739   H         3 RES3   0.0000
   162 H2C_4    5.0897   8.5107  13.4515   H         3 RES3   0.0000
   163 C3_4     7.1045  11.1206  13.2721   C.3       3 RES3   0.0000
   164 H3A_4    7.6811  11.4180  12.5376   H         3 RES3   0.0000
   165 H3B_4    7.6522  10.9304  14.0616   H         3 RES3   0.0000
   166 H3C_4    6.4579  11.8262  13.4853   H         3 RES3   0.0000
   167 C1_5    13.9685  15.7830  24.0052   C.2       4 RES4   0.0000
   168 H1_5    14.6358  15.4185  23.4364   H         4 RES4   0.0000
   169 O1_5    12.9255  15.1270  24.1176   O.2       4 RES4   0.0000
   170 N1_5    14.2684  16.9718  24.6029   N.am      4 RES4   0.0000
   171 C2_5    15.5539  17.6459  24.4344   C.3       4 RES4   0.0000
   172 H2A_5   16.1254  17.1128  23.8411   H         4 RES4   0.0000
   173 H2B_5   15.9900  17.7432  25.3058   H         4 RES4   0.0000
   174 H2C_5   15.4100  18.5306  24.0391   H         4 RES4   0.0000
   175 C3_5    13.2837  17.5628  25.5250   C.3       4 RES4   0.0000
   176 H3A_5   12.8586  18.3368  25.0986   H         4 RES4   0.0000
   177 H3B_5   13.7352  17.8516  26.3465   H         4 RES4   0.0000
   178 H3C_5   12.6000  16.8965  25.7464   H         4 RES4   0.0000
   179 C1_6     4.4894   5.5823  11.0294   C.2       5 RES5   0.0000
   180 H1_6     3.9488   5.1636  10.3691   H         5 RES5   0.0000
   181 O1_6     4.3591   6.8186  11.2312   O.2       5 RES5   0.0000
   182 N1_6     5.3808   4.8233  11.7293   N.am      5 RES5   0.0000
   183 C2_6     5.4494   3.3956  11.3896   C.3       5 RES5   0.0000
   184 H2A_6    5.0294   3.2462  10.5163   H         5 RES5   0.0000
   185 H2B_6    4.9780   2.8730  12.0717   H         5 RES5   0.0000
   186 H2C_6    6.3874   3.1130  11.3525   H         5 RES5   0.0000
   187 C3_6     6.2666   5.3821  12.7536   C.3       5 RES5   0.0000
   188 H3A_6    7.1242   5.6257  12.3466   H         5 RES5   0.0000
   189 H3B_6    6.4174   4.7134  13.4552   H         5 RES5   0.0000
   190 H3C_6    5.8530   6.1787  13.1462   H         5 RES5   0.0000
   191 C1_7     6.2926  11.4487  16.9528   C.3       6 RES6   0.0000
   192 H1A_7    6.0908  12.1905  16.3444   H         6 RES6   0.0000
   193 H1B_7    5.7674  10.6627  16.6942   H         6 RES6   0.0000
   194 H1C_7    7.2479  11.2346  16.8997   H         6 RES6   0.0000
   195 C2_7     4.4713  11.8850  18.5544   C.3       6 RES6   0.0000
   196 H2A_7    4.0539  12.4370  17.8599   H         6 RES6   0.0000
   197 H2B_7    4.2856  12.2718  19.4347   H         6 RES6   0.0000
   198 H2C_7    4.1047  10.9766  18.5123   H         6 RES6   0.0000
   199 N1_7     5.9516  11.8355  18.3309   N.4       6 RES6   1.0000
   200 H1D_7    6.3075  12.6552  18.5079   H         6 RES6   0.0000
   201 H1E_7    6.3219  11.2399  18.9096   H         6 RES6   0.0000
   202 C1_8    13.8664  11.8145  20.0154   C.3       7 RES7   0.0000
   203 H1A_8   14.0190  11.9473  19.0567   H         7 RES7   0.0000
   204 H1B_8   13.8730  10.8550  20.2171   H         7 RES7   0.0000
   205 H1C_8   14.5744  12.2601  20.5246   H         7 RES7   0.0000
   206 C2_8    12.3159  13.7710  20.0078   C.3       7 RES7   0.0000
   207 H2A_8   12.4939  13.8710  19.0500   H         7 RES7   0.0000
   208 H2B_8   12.9215  14.3512  20.5155   H         7 RES7   0.0000
   209 H2C_8   11.3882  14.0214  20.1972   H         7 RES7   0.0000
   210 N1_8    12.5309  12.3962  20.3960   N.4       7 RES7   1.0000
   211 H1D_8   11.8782  11.8870  20.0199   H         7 RES7   0.0000
   212 H1E_8   12.4391  12.3356  21.2992   H         7 RES7   0.0000
   213 C1_9    11.5465   2.2098   7.8544   C.3       8 RES8   0.0000
   214 H1A_9   11.4813   1.6822   8.6768   H         8 RES8   0.0000
   215 H1B_9   11.4012   3.1573   8.0614   H         8 RES8   0.0000
   216 H1C_9   10.8678   1.9076   7.2160   H         8 RES8   0.0000
   217 C2_9    13.3850   2.7323   5.9234   C.3       8 RES8   0.0000
   218 H2A_9   14.3077   2.4926   5.6955   H         8 RES8   0.0000
   219 H2B_9   12.7866   2.4526   5.1997   H         8 RES8   0.0000
   220 H2C_9   13.3200   3.7023   6.0451   H         8 RES8   0.0000
   221 N1_9    12.9806   2.0249   7.2235   N.4       8 RES8   1.0000
   222 H1D_9   13.5826   2.2735   7.8589   H         8 RES8   0.0000
   223 H1E_9   13.0959   1.1332   7.0876   H         8 RES8   0.0000
@<TRIPOS>BOND
     1     1     2    1
     2     1     3    1
     3     4    23    1
     4     4    60    1
     5     4   148    1
     6     4   149    1
     7     4   154    1
     8     5    20    1
     9     5    63    1
    10     5   151    1
    11     5   153    1
    12     6    68    1
    13     6   100    1
    14     6   150    1
    15     6   152    1
    16     7    10   un
    17     7   142    1
    18     8     9    1
    19     8    27    1
    20     8    28    1
    21    10    11   un
    22    10    51    1
    23    11   142    1
    24    12    26    1
    25    12    28    2
    26    13    14    1
    27    13    16    1
    28    13    51    2
    29    15    39    2
    30    16    17    1
    31    16    19    2
    32    18    39    1
    33    18   146    1
    34    19    21    1
    35    19    26    1
    36    20    50   un
    37    21    22    1
    38    21    24    2
    39    23    50   un
    40    24    25    1
    41    24    51    1
    42    26    27    2
    43    27    40    1
    44    28    29    1
    45    29    30    1
    46    29    37    2
    47    30    31    1
    48    30    32    2
    49    32    33    1
    50    32    34    1
    51    34    35    2
    52    34    39    1
    53    35    36    1
    54    35    37    1
    55    37    38    1
    56    40    41    1
    57    40    48    2
    58    41    42    1
    59    41    43    2
    60    43    44    1
    61    43    45    1
    62    45    46    2
    63    45    50    1
    64    46    47    1
    65    46    48    1
    66    48    49    1
    67    52    94    1
    68    52   145    1
    69    53    58    1
    70    53    94    1
    71    53    95    2
    72    54    69    1
    73    54    71    2
    74    55    94    2
    75    56    57    1
    76    56    70    1
    77    56    71    1
    78    58    59    1
    79    58    61    2
    80    60    82   un
    81    61    62    1
    82    61    64    1
    83    63    82   un
    84    64    66    2
    85    64    69    1
    86    65    93    2
    87    66    67    1
    88    66    95    1
    89    68    93    1
    90    69    70    2
    91    70    72    1
    92    71    83    1
    93    72    73    2
    94    72    80    1
    95    73    74    1
    96    73    75    1
    97    75    76    1
    98    75    77    2
    99    77    78    1
   100    77    82    1
   101    78    79    1
   102    78    80    2
   103    80    81    1
   104    83    84    1
   105    83    91    2
   106    84    85    1
   107    84    86    2
   108    86    87    1
   109    86    88    1
   110    88    89    2
   111    88    93    1
   112    89    90    1
   113    89    91    1
   114    91    92    1
   115    95    96    1
   116    97    98    2
   117    98   100    1
   118    98   103    1
   119    99   116    1
   120    99   117    2
   121   101   102    1
   122   101   115    1
   123   101   117    1
   124   103   105    1
   125   103   113    2
   126   104   126    1
   127   104   147    1
   128   105   106    1
   129   105   108    2
   130   107   126    2
   131   108   109    1
   132   108   111    1
   133   110   137   un
   134   110   144    1
   135   111   115    1
   136   111   140    2
   137   112   137   un
   138   112   143    1
   139   113   114    1
   140   113   140    1
   141   115   116    2
   142   116   118    1
   143   117   127    1
   144   118   119    2
   145   118   124    1
   146   119   120    1
   147   119   121    1
   148   121   122    1
   149   121   123    2
   150   123   126    1
   151   123   138    1
   152   124   125    1
   153   124   138    2
   154   127   128    1
   155   127   135    2
   156   128   129    1
   157   128   130    2
   158   130   131    1
   159   130   132    1
   160   132   133    2
   161   132   137    1
   162   133   134    1
   163   133   135    1
   164   135   136    1
   165   138   139    1
   166   140   141    1
   167   155   156    1
   168   155   157    2
   169   155   158   am
   170   158   159    1
   171   158   163    1
   172   159   160    1
   173   159   161    1
   174   159   162    1
   175   163   164    1
   176   163   165    1
   177   163   166    1
   178   167   168    1
   179   167   169    2
   180   167   170   am
   181   170   171    1
   182   170   175    1
   183   171   172    1
   184   171   173    1
   185   171   174    1
   186   175   176    1
   187   175   177    1
   188   175   178    1
   189   179   180    1
   190   179   181    2
   191   179   182   am
   192   182   183    1
   193   182   187    1
   194   183   184    1
   195   183   185    1
   196   183   186    1
   197   187   188    1
   198   187   189    1
   199   187   190    1
   200   191   192    1
   201   191   193    1
   202   191   194    1
   203   191   199    1
   204   195   196    1
   205   195   197    1
   206   195   198    1
   207   195   199    1
   208   199   200    1
   209   199   201    1
   210   202   203    1
   211   202   204    1
   212   202   205    1
   213   202   210    1
   214   206   207    1
   215   206   208    1
   216   206   209    1
   217   206   210    1
   218   210   211    1
   219   210   212    1
   220   213   214    1
   221   213   215    1
   222   213   216    1
   223   213   221    1
   224   217   218    1
   225   217   219    1
   226   217   220    1
   227   217   221    1
   228   221   222    1
   229   221   223    1
@<TRIPOS>SUBSTRUCTURE
     1 RES1        1 GROUP             0 ****  ****    0  
     2 RES2        4 GROUP             0 ****  ****    0  
     3 RES3      155 GROUP             0 ****  ****    0  
     4 RES4      167 GROUP             0 ****  ****    0  
     5 RES5      179 GROUP             0 ****  ****    0  
     6 RES6      191 GROUP             0 ****  ****    0  
     7 RES7      202 GROUP             0 ****  ****    0  
     8 RES8      213 GROUP             0 ****  ****    0  
@<TRIPOS>CRYSIN
   14.0258   23.6050   25.9645   97.9840   95.3860   97.7590     2     1
