####################################################################### 
# 
# This file contains crystal structure data downloaded from the 
# Cambridge Structural Database (CSD) hosted by the Cambridge 
# Crystallographic Data Centre (CCDC).
# 
# Full information about CCDC data access policies and citation 
# guidelines are available at http://www.ccdc.cam.ac.uk/access/V1 
# 
# Audit and citation data items may have been added by the CCDC. 
# Please retain this information to preserve the provenance of 
# this file and to allow appropriate attribution of the data. 
# 
#######################################################################
@<TRIPOS>MOLECULE
XALLUV
   224   247    17     0     0
SMALL
USER_CHARGES
****
Generated from the CSD

@<TRIPOS>ATOM
     1 Cd1     18.8793  34.6319  -2.4766   Cd        1 RES1  -2.0000
     2 O1_1    21.1616  34.1590  -0.6581   O.co2     1 RES1   0.0000
     3 O2_1    19.2320  35.0387  -0.3260   O.co2     1 RES1  -1.0000
     4 O3_1    16.0574  34.2324   8.3165   O.co2     1 RES1   0.0000
     5 O4_1    15.8691  36.2499   9.2111   O.co2     1 RES1   0.0000
     6 N1_1    23.3738  37.5814   5.1742   N.pl3     1 RES1   0.0000
     7 H1_1    23.9777  37.6539   4.5386   H         1 RES1   0.0000
     8 N2_1    22.3783  37.7587   7.0971   N.2       1 RES1   0.0000
     9 C1_1    20.3865  34.7932  -0.0061   C.2       1 RES1   0.0000
    10 C2_1    20.8542  35.3411   1.3407   C.2       1 RES1   0.0000
    11 C3_1    19.9587  35.9278   2.1876   C.2       1 RES1   0.0000
    12 H3_1    19.0466  35.9858   1.9337   H         1 RES1   0.0000
    13 C4_1    20.3617  36.4416   3.4156   C.2       1 RES1   0.0000
    14 H4_1    19.7287  36.8516   3.9935   H         1 RES1   0.0000
    15 C5_1    21.6996  36.3491   3.7894   C.2       1 RES1   0.0000
    16 C6_1    22.6089  35.7857   2.9143   C.2       1 RES1   0.0000
    17 H6_1    23.5331  35.7554   3.1377   H         1 RES1   0.0000
    18 C7_1    22.1610  35.2584   1.6998   C.2       1 RES1   0.0000
    19 H7_1    22.7801  34.8406   1.1150   H         1 RES1   0.0000
    20 C8_1    22.1437  36.9213   5.0860   C.2       1 RES1   0.0000
    21 C9_1    21.5382  37.0164   6.2711   C.2       1 RES1   0.0000
    22 C10_1   20.2941  36.5672   6.8532   C.2       1 RES1   0.0000
    23 C11_1   19.6842  37.3390   7.8336   C.2       1 RES1   0.0000
    24 H11_1   20.1083  38.1301   8.1439   H         1 RES1   0.0000
    25 C12_1   18.4531  36.9596   8.3655   C.2       1 RES1   0.0000
    26 H12_1   18.0414  37.5064   9.0244   H         1 RES1   0.0000
    27 C13_1   17.8237  35.8115   7.9550   C.2       1 RES1   0.0000
    28 C14_1   18.4516  35.0000   7.0076   C.2       1 RES1   0.0000
    29 H14_1   18.0530  34.1790   6.7399   H         1 RES1   0.0000
    30 C15_1   19.6793  35.4032   6.4524   C.2       1 RES1   0.0000
    31 H15_1   20.0940  34.8596   5.7908   H         1 RES1   0.0000
    32 C16_1   16.4622  35.4187   8.5640   C.2       1 RES1   0.0000
    33 C17_1   23.4524  38.0611   6.3618   C.2       1 RES1   0.0000
    34 C18_1   24.5177  38.8804   6.9047   C.2       1 RES1   0.0000
    35 C19_1   24.6344  39.0210   8.2895   C.2       1 RES1   0.0000
    36 H19_1   24.0214  38.5872   8.8726   H         1 RES1   0.0000
    37 C20_1   25.6535  39.8005   8.7932   C.2       1 RES1   0.0000
    38 H20_1   25.7568  39.8712   9.7350   H         1 RES1   0.0000
    39 C21_1   26.5070  40.4689   7.9844   C.2       1 RES1   0.0000
    40 C22_1   26.3940  40.3484   6.5897   C.2       1 RES1   0.0000
    41 H22_1   26.9891  40.8064   6.0093   H         1 RES1   0.0000
    42 C23_1   25.3866  39.5421   6.0872   C.2       1 RES1   0.0000
    43 H23_1   25.2962  39.4475   5.1463   H         1 RES1   0.0000
    44 C24_1   27.5981  41.3326   8.5959   C.2       1 RES1   0.0000
    45 O5_1    28.2026  42.1587   7.8422   O.co2     1 RES1   0.0000
    46 O6_1    27.8172  41.2463   9.8239   O.co2     1 RES1   0.0000
    47 O1_2    18.7325  32.3456  -2.5969   O.co2     1 RES1   0.0000
    48 C1_2    16.9640  30.8854  -2.2035   C.2       1 RES1   0.0000
    49 C2_2    15.7279  30.6941  -1.8028   C.2       1 RES1   0.0000
    50 H2_2    15.2232  31.4481  -1.5244   H         1 RES1   0.0000
    51 C3_2    15.1011  29.4018  -1.7635   C.2       1 RES1   0.0000
    52 H3_2    14.1790  29.3224  -1.5522   H         1 RES1   0.0000
    53 C4_2    15.8474  28.2801  -2.0356   C.3       1 RES1   0.0000
    54 C5_2    17.1537  28.4559  -2.2758   C.2       1 RES1   0.0000
    55 H5_2    17.7262  27.6989  -2.3147   H         1 RES1   0.0000
    56 C6_2    17.6856  29.7223  -2.4670   C.2       1 RES1   0.0000
    57 H6_2    18.5768  29.8028  -2.7901   H         1 RES1   0.0000
    58 C7_2    17.5592  32.2242  -2.2721   C.2       1 RES1   0.0000
    59 O2_2    16.9108  33.1706  -1.9523   O.co2     1 RES1   0.0000
    60 C11_2   12.6069  27.0447  -1.3849   C.3       1 RES1   0.0000
    61 C12_2   12.2251  28.1871  -2.0834   C.2       1 RES1   0.0000
    62 H12_2   12.8399  28.6214  -2.6539   H         1 RES1   0.0000
    63 C13_2   10.9361  28.6885  -1.9363   C.2       1 RES1   0.0000
    64 H13_2   10.6728  29.4689  -2.4070   H         1 RES1   0.0000
    65 C14_2   10.0305  28.0527  -1.0871   C.2       1 RES1   0.0000
    66 C15_2   10.4168  26.9155  -0.3922   C.2       1 RES1   0.0000
    67 H15_2    9.7987  26.4786   0.1854   H         1 RES1   0.0000
    68 C16_2   11.7028  26.4089  -0.5392   C.3       1 RES1   0.0000
    69 H16_2   11.9659  25.6310  -0.0615   H         1 RES1   0.0000
    70 C10_2   15.4064  24.7083  -2.0344   C.3       1 RES1   0.0000
    71 N1_2    14.0652  24.9564  -1.6545   N.2       1 RES1   0.0000
    72 H1_2    13.4255  24.3538  -1.5823   H         1 RES1   0.0000
    73 C8_2    13.9271  26.3469  -1.3971   C.3       1 RES1   0.0000
    74 C9_2    15.1861  26.9569  -1.6177   C.3       1 RES1   0.0000
    75 N2_2    16.1035  25.9489  -2.0172   N.4       1 RES1   0.0000
    76 O3_2     7.8840  27.9958  -0.2329   O.co2     1 RES1   0.0000
    77 O4_2     8.1724  29.0245  -1.9976   O.co2     1 RES1   0.0000
    78 C17_2    8.6449  28.6110  -0.9437   C.2       1 RES1   0.0000
    79 O1_2    18.7325  19.3454  -2.5969   O.co2     1 RES1   0.0000
    80 C1_2    16.9640  20.8056  -2.2035   C.2       1 RES1   0.0000
    81 C2_2    15.7279  20.9969  -1.8028   C.2       1 RES1   0.0000
    82 H2_2    15.2232  20.2429  -1.5244   H         1 RES1   0.0000
    83 C3_2    15.1011  22.2892  -1.7635   C.2       1 RES1   0.0000
    84 H3_2    14.1790  22.3686  -1.5522   H         1 RES1   0.0000
    85 C4_2    15.8474  23.4109  -2.0356   C.3       1 RES1   0.0000
    86 C5_2    17.1537  23.2351  -2.2758   C.2       1 RES1   0.0000
    87 H5_2    17.7262  23.9921  -2.3147   H         1 RES1   0.0000
    88 C6_2    17.6856  21.9687  -2.4670   C.2       1 RES1   0.0000
    89 H6_2    18.5768  21.8882  -2.7901   H         1 RES1   0.0000
    90 C7_2    17.5592  19.4668  -2.2721   C.2       1 RES1   0.0000
    91 O2_2    16.9108  18.5204  -1.9523   O.co2     1 RES1   0.0000
    92 C11_2   12.6069  24.6463  -1.3849   C.3       1 RES1   0.0000
    93 C12_2   12.2251  23.5039  -2.0834   C.2       1 RES1   0.0000
    94 H12_2   12.8399  23.0696  -2.6539   H         1 RES1   0.0000
    95 C13_2   10.9361  23.0025  -1.9363   C.2       1 RES1   0.0000
    96 H13_2   10.6728  22.2221  -2.4070   H         1 RES1   0.0000
    97 C14_2   10.0305  23.6383  -1.0871   C.2       1 RES1   0.0000
    98 C15_2   10.4168  24.7755  -0.3922   C.2       1 RES1   0.0000
    99 H15_2    9.7987  25.2124   0.1854   H         1 RES1   0.0000
   100 C16_2   11.7028  25.2821  -0.5392   C.3       1 RES1   0.0000
   101 H16_2   11.9659  26.0600  -0.0615   H         1 RES1   0.0000
   102 C10_2   15.4064  26.9827  -2.0344   C.3       1 RES1   0.0000
   103 N1_2    14.0652  26.7346  -1.6545   N.2       1 RES1   0.0000
   104 H1_2    13.4255  27.3372  -1.5823   H         1 RES1   0.0000
   105 C8_2    13.9271  25.3441  -1.3971   C.3       1 RES1   0.0000
   106 C9_2    15.1861  24.7341  -1.6177   C.3       1 RES1   0.0000
   107 N2_2    16.1035  25.7421  -2.0172   N.4       1 RES1   0.0000
   108 O3_2     7.8840  23.6952  -0.2329   O.co2     1 RES1   0.0000
   109 O4_2     8.1724  22.6665  -1.9976   O.co2     1 RES1   0.0000
   110 C17_2    8.6449  23.0800  -0.9437   C.2       1 RES1   0.0000
   111 Cd1     18.8793  17.0591  -2.4766   Cd        1 RES1  -2.0000
   112 O1_1    21.1616  17.5320  -0.6581   O.co2     1 RES1   0.0000
   113 O2_1    19.2320  16.6523  -0.3260   O.co2     1 RES1  -1.0000
   114 O3_1    16.0574  17.4586   8.3165   O.co2     1 RES1   0.0000
   115 O4_1    15.8691  15.4411   9.2111   O.co2     1 RES1   0.0000
   116 N1_1    23.3738  14.1096   5.1742   N.pl3     1 RES1   0.0000
   117 H1_1    23.9777  14.0371   4.5386   H         1 RES1   0.0000
   118 N2_1    22.3783  13.9323   7.0971   N.2       1 RES1   0.0000
   119 C1_1    20.3865  16.8978  -0.0061   C.2       1 RES1   0.0000
   120 C2_1    20.8542  16.3499   1.3407   C.2       1 RES1   0.0000
   121 C3_1    19.9587  15.7632   2.1876   C.2       1 RES1   0.0000
   122 H3_1    19.0466  15.7052   1.9337   H         1 RES1   0.0000
   123 C4_1    20.3617  15.2494   3.4156   C.2       1 RES1   0.0000
   124 H4_1    19.7287  14.8394   3.9935   H         1 RES1   0.0000
   125 C5_1    21.6996  15.3419   3.7894   C.2       1 RES1   0.0000
   126 C6_1    22.6089  15.9053   2.9143   C.2       1 RES1   0.0000
   127 H6_1    23.5331  15.9356   3.1377   H         1 RES1   0.0000
   128 C7_1    22.1610  16.4326   1.6998   C.2       1 RES1   0.0000
   129 H7_1    22.7801  16.8504   1.1150   H         1 RES1   0.0000
   130 C8_1    22.1437  14.7697   5.0860   C.2       1 RES1   0.0000
   131 C9_1    21.5382  14.6746   6.2711   C.2       1 RES1   0.0000
   132 C10_1   20.2941  15.1238   6.8532   C.2       1 RES1   0.0000
   133 C11_1   19.6842  14.3520   7.8336   C.2       1 RES1   0.0000
   134 H11_1   20.1083  13.5609   8.1439   H         1 RES1   0.0000
   135 C12_1   18.4531  14.7314   8.3655   C.2       1 RES1   0.0000
   136 H12_1   18.0414  14.1846   9.0244   H         1 RES1   0.0000
   137 C13_1   17.8237  15.8795   7.9550   C.2       1 RES1   0.0000
   138 C14_1   18.4516  16.6910   7.0076   C.2       1 RES1   0.0000
   139 H14_1   18.0530  17.5120   6.7399   H         1 RES1   0.0000
   140 C15_1   19.6793  16.2878   6.4524   C.2       1 RES1   0.0000
   141 H15_1   20.0940  16.8314   5.7908   H         1 RES1   0.0000
   142 C16_1   16.4622  16.2723   8.5640   C.2       1 RES1   0.0000
   143 C17_1   23.4524  13.6299   6.3618   C.2       1 RES1   0.0000
   144 C18_1   24.5177  12.8106   6.9047   C.2       1 RES1   0.0000
   145 C19_1   24.6344  12.6700   8.2895   C.2       1 RES1   0.0000
   146 H19_1   24.0214  13.1038   8.8726   H         1 RES1   0.0000
   147 C20_1   25.6535  11.8905   8.7932   C.2       1 RES1   0.0000
   148 H20_1   25.7568  11.8198   9.7350   H         1 RES1   0.0000
   149 C21_1   26.5070  11.2221   7.9844   C.2       1 RES1   0.0000
   150 C22_1   26.3940  11.3426   6.5897   C.2       1 RES1   0.0000
   151 H22_1   26.9891  10.8846   6.0093   H         1 RES1   0.0000
   152 C23_1   25.3866  12.1489   6.0872   C.2       1 RES1   0.0000
   153 H23_1   25.2962  12.2435   5.1463   H         1 RES1   0.0000
   154 C24_1   27.5981  10.3584   8.5959   C.2       1 RES1   0.0000
   155 O5_1    28.2026   9.5323   7.8422   O.co2     1 RES1   0.0000
   156 O6_1    27.8172  10.4447   9.8239   O.co2     1 RES1   0.0000
   157 Cd1     14.1995  34.6319   9.7788   Cd        1 RES1  -2.0000
   158 Cd1     29.4960   8.7864   9.7788   Cd        1 RES1  -2.0000
   159 Cd1     14.1995  17.0591   9.7788   Cd        1 RES1  -2.0000
   160 Cd1     29.4960  42.9046   9.7788   Cd        1 RES1  -2.0000
   161 O3_1    20.7373  34.2324  -3.9389   O.3       1 RES1   0.0000
   162 O3_1    20.7373  17.4586  -3.9389   O.3       1 RES1   0.0000
   163 O4_1    20.5490  36.2499  -3.0442   O.3       1 RES1   0.0000
   164 O4_1    20.5490  15.4411  -3.0442   O.3       1 RES1   0.0000
   165 O5_1    17.5859  16.3132  -4.4132   O.3       1 RES1   0.0000
   166 O5_1    17.5859  35.3778  -4.4132   O.3       1 RES1   0.0000
   167 O6_1    17.2006  15.4008  -2.4315   O.3       1 RES1   0.0000
   168 O6_1    17.2006  36.2902  -2.4315   O.3       1 RES1   0.0000
   169 C1_3    18.4551  38.3754  -0.1078   C.2       2 RES2   0.0000
   170 H1_3    18.3387  37.8309  -0.8769   H         2 RES2   0.0000
   171 O1_3    17.4822  38.5150   0.5172   O.2       2 RES2   0.0000
   172 N1_3    19.7309  38.8406   0.0441   N.am      2 RES2   0.0000
   173 C2_3    20.9387  38.4116  -0.7954   C.3       2 RES2   0.0000
   174 H2A_3   21.7377  38.8879  -0.4888   H         2 RES2   0.0000
   175 H2B_3   21.0784  37.4444  -0.6958   H         2 RES2   0.0000
   176 H2C_3   20.7739  38.6201  -1.7380   H         2 RES2   0.0000
   177 C3_3    19.9298  39.7917   1.2537   C.3       2 RES2   0.0000
   178 H3A_3   20.8647  40.0803   1.2940   H         2 RES2   0.0000
   179 H3B_3   19.3498  40.5762   1.1514   H         2 RES2   0.0000
   180 H3C_3   19.6966  39.3211   2.0817   H         2 RES2   0.0000
   181 C2_5    16.1692  34.9069   0.9032   C.3       3 RES3   0.0000
   182 H2A_5   16.6545  35.5958   1.4061   H         3 RES3   0.0000
   183 H2B_5   15.6561  34.3507   1.5242   H         3 RES3   0.0000
   184 H2C_5   16.8073  34.3506   0.4125   H         3 RES3   0.0000
   185 N1_5    15.2965  35.5221   0.0000   N.4       3 RES3   1.0000
   186 H1A_5   15.8192  36.0705  -0.5048   H         3 RES3   0.0000
   187 C2_5    14.4238  34.9069  -0.9032   C.3       3 RES3   0.0000
   188 H2A_5   13.9385  35.5958  -1.4061   H         3 RES3   0.0000
   189 H2B_5   14.9369  34.3507  -1.5242   H         3 RES3   0.0000
   190 H2C_5   13.7857  34.3506  -0.4125   H         3 RES3   0.0000
   191 H1A_5   14.7738  36.0705   0.5048   H         3 RES3   0.0000
   192 C1_6    18.7698  33.0977   3.5945   C.3       4 RES4   0.0000
   193 H1A_6   19.4180  33.3144   4.2972   H         4 RES4   0.0000
   194 H1B_6   18.4485  33.9270   3.1810   H         4 RES4   0.0000
   195 H1C_6   18.0131  32.6140   3.9856   H         4 RES4   0.0000
   196 C2_6    18.8796  31.6918   1.3603   C.2       4 RES4   0.0000
   197 H2A_6   17.9714  31.8566   1.1359   H         4 RES4   0.0000
   198 H2B_6   19.4191  31.1593   0.7812   H         4 RES4   0.0000
   199 N1_6    19.4340  32.2345   2.5442   N.4       4 RES4   1.0000
   200 H1D_6   20.1588  32.7112   2.2695   H         4 RES4   0.0000
   201 H1E_6   19.7637  31.5196   2.9997   H         4 RES4   0.0000
   202 C2_7    23.1582  32.1363  -2.7783   C.3       5 RES5   0.0000
   203 H2A_7   23.3086  32.9319  -3.3332   H         5 RES5   0.0000
   204 H2B_7   23.6506  32.2306  -1.9359   H         5 RES5   0.0000
   205 H2C_7   23.4735  31.3420  -3.2551   H         5 RES5   0.0000
   206 C1_7    21.4069  30.7148  -1.5809   C.3       5 RES5   0.0000
   207 H1A_7   20.4594  30.5865  -1.3709   H         5 RES5   0.0000
   208 H1B_7   21.7404  29.9332  -2.0735   H         5 RES5   0.0000
   209 H1C_7   21.9174  30.8218  -0.7544   H         5 RES5   0.0000
   210 N1_7    21.5735  31.9916  -2.4658   N.4       5 RES5   1.0000
   211 H1D_7   21.2686  32.7228  -2.0221   H         5 RES5   0.0000
   212 H1E_7   21.1052  31.9022  -3.2403   H         5 RES5   0.0000
   213 H1B_5?   15.8192  36.0705  -0.5048   H         6 RES6   0.0000
   214 C1_4?   25.6101  44.0511   7.2245   C.3       7 RES7   0.0000
   215 H1A_4?   25.1074  43.2175   7.3207   H         8 RES8   0.0000
   216 H1B_4?   25.9634  44.3241   8.0979   H         9 RES9   0.0000
   217 H1C_4?   25.0162  44.7537   6.8816   H        10 RES10   0.0000
   218 C2_4?   27.5532  45.0022   6.0456   C.3      11 RES11   0.0000
   219 H2A_4?   28.2536  44.7432   5.4098   H        12 RES12   0.0000
   220 H2B_4?   27.0198  45.7296   5.6662   H        13 RES13   0.0000
   221 H2C_4?   27.9669  45.3000   6.8825   H        14 RES14   0.0000
   222 N1_4?   26.6935  43.8546   6.3103   N.3      15 RES15   1.0000
   223 H1D_4?   26.3467  43.5756   5.5181   H        16 RES16   0.0000
   224 H1E_4?   27.2141  43.1822   6.6319   H        17 RES17   0.0000
@<TRIPOS>BOND
     1     1     3    1
     2     1    47    1
     3     1    59    1
     4     1   161    1
     5     1   163    1
     6     1   166    1
     7     1   168    1
     8     2     9    2
     9     3     9    1
    10     4    32   un
    11     4   157    1
    12     5    32   un
    13     5   157    1
    14     6     7    1
    15     6    20    1
    16     6    33    1
    17     8    21    1
    18     8    33    2
    19     9    10    1
    20    10    11    1
    21    10    18    2
    22    11    12    1
    23    11    13    2
    24    13    14    1
    25    13    15    1
    26    15    16    2
    27    15    20    1
    28    16    17    1
    29    16    18    1
    30    18    19    1
    31    20    21    2
    32    21    22    1
    33    22    23    1
    34    22    30    2
    35    23    24    1
    36    23    25    2
    37    25    26    1
    38    25    27    1
    39    27    28    2
    40    27    32    1
    41    28    29    1
    42    28    30    1
    43    30    31    1
    44    33    34    1
    45    34    35    2
    46    34    42    1
    47    35    36    1
    48    35    37    1
    49    37    38    1
    50    37    39    2
    51    39    40    1
    52    39    44    1
    53    40    41    1
    54    40    42    2
    55    42    43    1
    56    44    45   un
    57    44    46   un
    58    45   160    1
    59    46   160    1
    60    47    58   un
    61    48    49    1
    62    48    56    2
    63    48    58    1
    64    49    50    1
    65    49    51    2
    66    51    52    1
    67    51    53    1
    68    53    54    1
    69    53    74    1
    70    53   102    1
    71    54    55    1
    72    54    56    1
    73    56    57    1
    74    58    59   un
    75    60    61    1
    76    60    68    1
    77    60    73    1
    78    60   103    1
    79    60   104    1
    80    61    62    1
    81    61    63    2
    82    63    64    1
    83    63    65    1
    84    65    66    2
    85    65    78    1
    86    66    67    1
    87    66    68    1
    88    68    69    1
    89    68   100    1
    90    68   101    1
    91    69   100    1
    92    70    71    1
    93    70    75    1
    94    70    85    1
    95    70   105    1
    96    70   107    1
    97    71    72    1
    98    71    73    1
    99    71    92    1
   100    71   103    1
   101    71   106    1
   102    72    92    1
   103    72   105    1
   104    73    74    1
   105    73   102    1
   106    73   104    1
   107    73   105    1
   108    74    75    1
   109    74   103    1
   110    74   107    1
   111    75   102    1
   112    75   106    1
   113    76    78    1
   114    77    78    1
   115    79    90   un
   116    79   111    1
   117    80    81    1
   118    80    88    2
   119    80    90    1
   120    81    82    1
   121    81    83    2
   122    83    84    1
   123    83    85    1
   124    85    86    1
   125    85   106    1
   126    86    87    1
   127    86    88    1
   128    88    89    1
   129    90    91   un
   130    91   111    1
   131    92    93    1
   132    92   100    1
   133    92   105    1
   134    93    94    1
   135    93    95    2
   136    95    96    1
   137    95    97    1
   138    97    98    2
   139    97   110    1
   140    98    99    1
   141    98   100    1
   142   100   101    1
   143   102   103    1
   144   102   107    1
   145   103   104    1
   146   103   105    1
   147   105   106    1
   148   106   107    1
   149   108   110    1
   150   109   110    1
   151   111   113    1
   152   111   162    1
   153   111   164    1
   154   111   165    1
   155   111   167    1
   156   112   119    2
   157   113   119    1
   158   114   142   un
   159   114   159    1
   160   115   142   un
   161   115   159    1
   162   116   117    1
   163   116   130    1
   164   116   143    1
   165   118   131    1
   166   118   143    2
   167   119   120    1
   168   120   121    1
   169   120   128    2
   170   121   122    1
   171   121   123    2
   172   123   124    1
   173   123   125    1
   174   125   126    2
   175   125   130    1
   176   126   127    1
   177   126   128    1
   178   128   129    1
   179   130   131    2
   180   131   132    1
   181   132   133    1
   182   132   140    2
   183   133   134    1
   184   133   135    2
   185   135   136    1
   186   135   137    1
   187   137   138    2
   188   137   142    1
   189   138   139    1
   190   138   140    1
   191   140   141    1
   192   143   144    1
   193   144   145    2
   194   144   152    1
   195   145   146    1
   196   145   147    1
   197   147   148    1
   198   147   149    2
   199   149   150    1
   200   149   154    1
   201   150   151    1
   202   150   152    2
   203   152   153    1
   204   154   155   un
   205   154   156   un
   206   155   158    1
   207   156   158    1
   208   169   170    1
   209   169   171    2
   210   169   172   am
   211   172   173    1
   212   172   177    1
   213   173   174    1
   214   173   175    1
   215   173   176    1
   216   177   178    1
   217   177   179    1
   218   177   180    1
   219   181   182    1
   220   181   183    1
   221   181   184    1
   222   181   185    1
   223   185   186    1
   224   185   187    1
   225   185   191    1
   226   187   188    1
   227   187   189    1
   228   187   190    1
   229   192   193    1
   230   192   194    1
   231   192   195    1
   232   192   199    1
   233   196   197    1
   234   196   198    1
   235   196   199    1
   236   199   200    1
   237   199   201    1
   238   202   203    1
   239   202   204    1
   240   202   205    1
   241   202   210    1
   242   206   207    1
   243   206   208    1
   244   206   209    1
   245   206   210    1
   246   210   211    1
   247   210   212    1
@<TRIPOS>SUBSTRUCTURE
     1 RES1        1 GROUP             0 ****  ****    0  
     2 RES2      169 GROUP             0 ****  ****    0  
     3 RES3      181 GROUP             0 ****  ****    0  
     4 RES4      192 GROUP             0 ****  ****    0  
     5 RES5      202 GROUP             0 ****  ****    0  
     6 RES6      213 GROUP             0 ****  ****    0  
     7 RES7      214 GROUP             0 ****  ****    0  
     8 RES8      215 GROUP             0 ****  ****    0  
     9 RES9      216 GROUP             0 ****  ****    0  
    10 RES10     217 GROUP             0 ****  ****    0  
    11 RES11     218 GROUP             0 ****  ****    0  
    12 RES12     219 GROUP             0 ****  ****    0  
    13 RES13     220 GROUP             0 ****  ****    0  
    14 RES14     221 GROUP             0 ****  ****    0  
    15 RES15     222 GROUP             0 ****  ****    0  
    16 RES16     223 GROUP             0 ****  ****    0  
    17 RES17     224 GROUP             0 ****  ****    0  
@<TRIPOS>CRYSIN
   30.5930   51.6910   13.1185   90.0000  110.9000   90.0000    12     1
