####################################################################### 
# 
# This file contains crystal structure data downloaded from the 
# Cambridge Structural Database (CSD) hosted by the Cambridge 
# Crystallographic Data Centre (CCDC).
# 
# Full information about CCDC data access policies and citation 
# guidelines are available at http://www.ccdc.cam.ac.uk/access/V1 
# 
# Audit and citation data items may have been added by the CCDC. 
# Please retain this information to preserve the provenance of 
# this file and to allow appropriate attribution of the data. 
# 
#######################################################################
@<TRIPOS>MOLECULE
BEBHAV
    68    71     2     0     0
SMALL
NO_CHARGES
****
Generated from the CSD

@<TRIPOS>ATOM
     1 Zn1      3.0336   5.2966   9.7912   Zn        1 RES1   0.0000
     2 O3      -2.1235   5.4245  16.9811   O.co2     1 RES1   0.0000
     3 O1       1.2817   5.2384  10.7709   O.co2     1 RES1   0.0000
     4 O4       0.0489   5.2420  16.9305   O.co2     1 RES1   0.0000
     5 O2       2.2960   4.3060  12.4976   O.co2     1 RES1   0.0000
     6 O7       5.0888   5.1526  10.6492   O.2       1 RES1   0.0000
     7 O5       3.2389   3.2293   9.6948   O.3       1 RES1   0.0000
     8 H5A      4.0560   3.0122   9.2411   H         1 RES1   0.0000
     9 H5B      3.2622   2.8716  10.5858   H         1 RES1   0.0000
    10 O6       3.1937   7.2764  10.1776   O.3       1 RES1   0.0000
    11 N1      -3.6539   4.9687  12.2006   N.pl3     1 RES1   0.0000
    12 H1      -4.3310   5.3365  12.5827   H         1 RES1   0.0000
    13 N2       6.5776   5.1584  12.3608   N.am      1 RES1   0.0000
    14 C8      -1.2244   4.9428  12.0782   C.2       1 RES1   0.0000
    15 H8      -1.2537   4.8944  11.1506   H         1 RES1   0.0000
    16 C3       0.0524   5.0322  14.1183   C.2       1 RES1   0.0000
    17 H3       0.8716   5.0069  14.5577   H         1 RES1   0.0000
    18 C2       0.0043   4.9305  12.7337   C.2       1 RES1   0.0000
    19 C4      -1.1165   5.1706  14.8445   C.2       1 RES1   0.0000
    20 C7      -2.4138   5.0279  12.8059   C.2       1 RES1   0.0000
    21 C5      -1.0546   5.2904  16.3376   C.2       1 RES1   0.0000
    22 C6      -2.3334   5.1829  14.1970   C.2       1 RES1   0.0000
    23 H6      -3.1149   5.2961  14.6907   H         1 RES1   0.0000
    24 C1       1.2862   4.8144  11.9497   C.2       1 RES1   0.0000
    25 C10     -5.2602   3.8704  10.7049   C.2       1 RES1   0.0000
    26 C23     -6.1326   4.6406   9.9069   C.2       1 RES1   0.0000
    27 C11     -5.7116   2.6726  11.2967   C.2       1 RES1   0.0000
    28 C9      -3.8264   4.2887  10.9196   C.3       1 RES1   0.0000
    29 H9A     -3.2573   3.5041  10.8937   H         1 RES1   0.0000
    30 H9B     -3.5531   4.8815  10.2013   H         1 RES1   0.0000
    31 C18     -7.4703   4.1553   9.6711   C.2       1 RES1   0.0000
    32 C17     -7.8780   2.9437  10.2032   C.2       1 RES1   0.0000
    33 H17     -8.7282   2.6235  10.0064   H         1 RES1   0.0000
    34 C24      5.3679   5.1065  11.8557   C.2       1 RES1   0.0000
    35 H24      4.6587   5.0279  12.4551   H         1 RES1   0.0000
    36 C26      6.7797   5.0488  13.8016   C.3       1 RES1   0.0000
    37 H26A     5.9457   4.8295  14.2261   H         1 RES1   0.0000
    38 H26B     7.1022   5.8853  14.1441   H         1 RES1   0.0000
    39 H26C     7.4222   4.3594  13.9838   H         1 RES1   0.0000
    40 C12     -4.8907   1.8793  12.1746   C.2       1 RES1   0.0000
    41 H12     -4.0229   2.1562  12.3659   H         1 RES1   0.0000
    42 C19     -8.3472   4.9428   8.8476   C.2       1 RES1   0.0000
    43 H19     -9.2079   4.6377   8.6763   H         1 RES1   0.0000
    44 C22     -5.7711   5.8629   9.3158   C.2       1 RES1   0.0000
    45 H22     -4.9132   6.1947   9.4580   H         1 RES1   0.0000
    46 C16     -7.0364   2.1894  11.0303   C.2       1 RES1   0.0000
    47 C20     -7.9504   6.0973   8.3265   C.2       1 RES1   0.0000
    48 H20     -8.5441   6.5956   7.8145   H         1 RES1   0.0000
    49 C25      7.7637   5.3307  11.5314   C.3       1 RES1   0.0000
    50 H25A     8.1775   4.4769  11.3820   H         1 RES1   0.0000
    51 H25B     8.3853   5.9120  11.9778   H         1 RES1   0.0000
    52 H25C     7.5119   5.7166  10.6896   H         1 RES1   0.0000
    53 C21     -6.6383   6.5812   8.5379   C.2       1 RES1   0.0000
    54 H21     -6.3672   7.3817   8.1498   H         1 RES1   0.0000
    55 C15     -7.4601   0.9692  11.5879   C.2       1 RES1   0.0000
    56 H15     -8.3024   0.6368  11.3783   H         1 RES1   0.0000
    57 C14     -6.6507   0.2697  12.4315   C.2       1 RES1   0.0000
    58 H14     -6.9557  -0.5221  12.8122   H         1 RES1   0.0000
    59 C13     -5.3623   0.7363  12.7266   C.2       1 RES1   0.0000
    60 H13     -4.8242   0.2531  13.3115   H         1 RES1   0.0000
    61 H6A      3.8899   7.5937  10.2214   H         1 RES1   0.0000
    62 H6B      2.7463   7.6514  10.6951   H         1 RES1   0.0000
    63 Zn1     -1.3569   5.5206  18.9012   Zn        1 RES1   0.0000
    64 O3       2.2671   5.3928   7.8712   O.3       1 RES1   0.0000
    65 O4       4.4395   5.5752   7.8205   O.3       1 RES1   0.0000
    66 O8       2.0505   1.3550  12.3520   O.3       2 RES2   0.0000
    67 H8B      2.0725   2.2356  12.4806   H         2 RES2   0.0000
    68 H8A      2.2673   1.1394  13.0455   H         2 RES2   0.0000
@<TRIPOS>BOND
     1     1     3    1
     2     1     6    1
     3     1     7    1
     4     1    10    1
     5     1    64    1
     6     1    65    1
     7     2    21   un
     8     2    63    1
     9     3    24    1
    10     4    21   un
    11     4    63    1
    12     5    24    2
    13     6    34    2
    14     7     8    1
    15     7     9    1
    16    10    61    1
    17    10    62    1
    18    11    12    1
    19    11    20    1
    20    11    28    1
    21    13    34   am
    22    13    36    1
    23    13    49    1
    24    14    15    1
    25    14    18    1
    26    14    20    2
    27    16    17    1
    28    16    18    2
    29    16    19    1
    30    18    24    1
    31    19    21    1
    32    19    22    2
    33    20    22    1
    34    22    23    1
    35    25    26    2
    36    25    27    1
    37    25    28    1
    38    26    31    1
    39    26    44    1
    40    27    40    1
    41    27    46    2
    42    28    29    1
    43    28    30    1
    44    31    32    2
    45    31    42    1
    46    32    33    1
    47    32    46    1
    48    34    35    1
    49    36    37    1
    50    36    38    1
    51    36    39    1
    52    40    41    1
    53    40    59    2
    54    42    43    1
    55    42    47    2
    56    44    45    1
    57    44    53    2
    58    46    55    1
    59    47    48    1
    60    47    53    1
    61    49    50    1
    62    49    51    1
    63    49    52    1
    64    53    54    1
    65    55    56    1
    66    55    57    2
    67    57    58    1
    68    57    59    1
    69    59    60    1
    70    66    67    1
    71    66    68    1
@<TRIPOS>SUBSTRUCTURE
     1 RES1        1 GROUP             0 ****  ****    0  
     2 RES2       66 GROUP             0 ****  ****    0  
@<TRIPOS>CRYSIN
   18.6782    7.2115   20.2256   90.0000  115.7320   90.0000    14     1
