####################################################################### 
# 
# This file contains crystal structure data downloaded from the 
# Cambridge Structural Database (CSD) hosted by the Cambridge 
# Crystallographic Data Centre (CCDC).
# 
# Full information about CCDC data access policies and citation 
# guidelines are available at http://www.ccdc.cam.ac.uk/access/V1 
# 
# Audit and citation data items may have been added by the CCDC. 
# Please retain this information to preserve the provenance of 
# this file and to allow appropriate attribution of the data. 
# 
#######################################################################
@<TRIPOS>MOLECULE
LERNUV
   190   206     1     0     0
SMALL
NO_CHARGES
****
Generated from the CSD

@<TRIPOS>ATOM
     1 Zn1      8.0031   9.5513  27.7909   Zn        1 RES1   0.0000
     2 Zn2      6.7512   7.8292  25.2308   Zn        1 RES1   0.0000
     3 Zn3     12.3221  16.6752  23.2033   Zn        1 RES1   0.0000
     4 Zn4     13.4786  -0.6788  42.2183   Zn        1 RES1   0.0000
     5 O1       7.3224   9.2398  29.6994   O.2       1 RES1   0.0000
     6 O2       9.8761  10.1589  28.5920   O.2       1 RES1   0.0000
     7 O3       7.4219  11.5241  27.9646   O.2       1 RES1   0.0000
     8 O4       8.8570  10.0437  25.9646   O.co2     1 RES1   0.0000
     9 O5       8.6240   7.6380  27.8177   O.co2     1 RES1   0.0000
    10 O6       8.0828   6.5437  25.9605   O.co2     1 RES1   0.0000
    11 O7       8.0361   8.9372  24.2270   O.co2     1 RES1   0.0000
    12 O8      12.9191  18.6278  23.0238   O.2       1 RES1   0.0000
    13 O9      13.0135  16.3623  21.2957   O.2       1 RES1   0.0000
    14 O10     11.6871  14.7541  23.1903   O.co2     1 RES1   0.0000
    15 O11     12.2231  13.6794  25.0197   O.co2     1 RES1   0.0000
    16 O12     10.4587  17.2623  22.3957   O.2       1 RES1   0.0000
    17 O13     12.6289   0.3429  40.7302   O.co2     1 RES1   0.0000
    18 O14     11.7336   0.8344  42.6370   O.co2     1 RES1   0.0000
    19 O15      8.7174   4.7507  42.8706   O.co2     1 RES1   0.0000
    20 O16      7.5854   5.3178  41.1027   O.co2     1 RES1   0.0000
    21 O17      9.5046   0.9743  36.7231   O.2       1 RES1   0.0000
    22 O18     10.8590   5.2830  37.2598   O.2       1 RES1   0.0000
    23 O19      9.5154   1.7776  30.8269   O.2       1 RES1   0.0000
    24 O20     10.9440   6.0121  31.4305   O.2       1 RES1   0.0000
    25 O21     12.2180   1.7982  26.7590   O.co2     1 RES1   0.0000
    26 O22     11.4147   2.8996  25.0285   O.co2     1 RES1   0.0000
    27 O23     10.7648   8.9114  20.1635   O.2       1 RES1   0.0000
    28 O24      9.3574  13.1585  19.5674   O.2       1 RES1   0.0000
    29 O25      9.4414  12.3854  13.7262   O.2       1 RES1   0.0000
    30 O26     10.7888   8.1425  14.2544   O.2       1 RES1   0.0000
    31 O27      7.6585   7.4770  10.2419   O.co2     1 RES1   0.0000
    32 O28      8.5479   7.9785   8.3408   O.co2     1 RES1   0.0000
    33 O29     11.6130  11.8890   8.1056   O.co2     1 RES1   0.0000
    34 O30     12.7380  12.4515   9.8704   O.co2     1 RES1   0.0000
    35 N1       7.6230   8.3991  31.7348   N.am      1 RES1   0.0000
    36 N2      11.9064  10.8193  27.8731   N.am      1 RES1   0.0000
    37 N3       7.8022  13.6940  27.8976   N.am      1 RES1   0.0000
    38 N4       8.4381  17.9402  23.1349   N.am      1 RES1   0.0000
    39 N5      12.4859  20.7921  23.1360   N.am      1 RES1   0.0000
    40 N6      12.7089  15.5368  19.2424   N.am      1 RES1   0.0000
    41 N7      10.2357   3.9233  30.7694   N.am      1 RES1   0.0000
    42 N8      10.1414   3.1031  37.3475   N.am      1 RES1   0.0000
    43 N9      10.0534  11.0672  20.2213   N.am      1 RES1   0.0000
    44 N10     10.1420  10.2510  13.6242   N.am      1 RES1   0.0000
    45 C1       8.0175   8.7583  30.5553   C.2       1 RES1   0.0000
    46 H1       8.9164   8.6321  30.3514   H         1 RES1   0.0000
    47 C2       6.2763   8.6274  32.1165   C.3       1 RES1   0.0000
    48 H2A      6.2540   9.2267  32.8655   H         1 RES1   0.0000
    49 H2B      5.8679   7.7936  32.3609   H         1 RES1   0.0000
    50 H2C      5.7972   9.0151  31.3809   H         1 RES1   0.0000
    51 C3       8.5226   7.8543  32.7313   C.3       1 RES1   0.0000
    52 H3A      9.3780   7.6840  32.3311   H         1 RES1   0.0000
    53 H3B      8.1606   7.0342  33.0748   H         1 RES1   0.0000
    54 H3C      8.6241   8.4844  33.4485   H         1 RES1   0.0000
    55 C4       8.0330  12.4499  27.6342   C.2       1 RES1   0.0000
    56 H4       8.7836  12.2769  27.1137   H         1 RES1   0.0000
    57 C5       6.4154  14.0737  28.4802   C.3       1 RES1   0.0000
    58 H5A      5.8619  13.2913  28.5233   H         1 RES1   0.0000
    59 H5B      6.0000  14.7286  27.9127   H         1 RES1   0.0000
    60 H5C      6.5271  14.4379  29.3602   H         1 RES1   0.0000
    61 C6       8.7134  14.7426  27.4707   C.3       1 RES1   0.0000
    62 H6A      9.6145  14.4906  27.6843   H         1 RES1   0.0000
    63 H6B      8.4935  15.5610  27.9195   H         1 RES1   0.0000
    64 H6C      8.6339  14.8673  26.5207   H         1 RES1   0.0000
    65 C7      10.8732  10.0432  27.9309   C.2       1 RES1   0.0000
    66 H7      10.9055   9.2920  27.3842   H         1 RES1   0.0000
    67 C8      13.0525  10.5879  27.0322   C.3       1 RES1   0.0000
    68 H8A     13.8348  10.4872  27.5797   H         1 RES1   0.0000
    69 H8B     13.1701  11.3349  26.4407   H         1 RES1   0.0000
    70 H8C     12.9160   9.7898  26.5180   H         1 RES1   0.0000
    71 C9      11.8877  12.1020  28.5176   C.3       1 RES1   0.0000
    72 H9A     11.3385  12.7053  28.0107   H         1 RES1   0.0000
    73 H9B     12.7821  12.4479  28.5653   H         1 RES1   0.0000
    74 H9C     11.5311  12.0103  29.4027   H         1 RES1   0.0000
    75 C10      8.6325   6.6489  27.0591   C.2       1 RES1   0.0000
    76 C11      9.3946   5.4563  27.5621   C.2       1 RES1   0.0000
    77 C12      9.9900   4.5815  26.6849   C.2       1 RES1   0.0000
    78 H12      9.8955   4.7046  25.7678   H         1 RES1   0.0000
    79 C13     10.7261   3.5230  27.1668   C.2       1 RES1   0.0000
    80 C14     11.5130   2.6768  26.2314   C.2       1 RES1   0.0000
    81 C15     10.8070   3.3136  28.5132   C.2       1 RES1   0.0000
    82 H15     11.2981   2.5968  28.8442   H         1 RES1   0.0000
    83 C16     10.1690   4.1570  29.3728   C.2       1 RES1   0.0000
    84 C17      9.4927   5.2326  28.9058   C.2       1 RES1   0.0000
    85 H17      9.0937   5.8225  29.5036   H         1 RES1   0.0000
    86 C18      9.8810   2.7536  31.3836   C.2       1 RES1   0.0000
    87 C19     10.6147   4.9122  31.6865   C.2       1 RES1   0.0000
    88 C20     10.0427   2.9879  32.8408   C.2       1 RES1   0.0000
    89 C21     10.4753   4.2776  33.0012   C.2       1 RES1   0.0000
    90 C22     10.6868   4.8272  34.2276   C.2       1 RES1   0.0000
    91 H22     10.9787   5.7019  34.3448   H         1 RES1   0.0000
    92 C23      9.8170   2.1521  33.8758   C.2       1 RES1   0.0000
    93 H23      9.5390   1.2724  33.7602   H         1 RES1   0.0000
    94 C24     10.0326   2.7073  35.1134   C.2       1 RES1   0.0000
    95 C25     10.4334   3.9814  35.2745   C.2       1 RES1   0.0000
    96 C26     10.5370   4.2657  36.7139   C.2       1 RES1   0.0000
    97 C27      9.8472   2.0928  36.4481   C.2       1 RES1   0.0000
    98 C28     10.1201   2.9721  38.7673   C.2       1 RES1   0.0000
    99 C29      9.3183   3.8112  39.4865   C.2       1 RES1   0.0000
   100 H29      8.7793   4.4358  39.0560   H         1 RES1   0.0000
   101 C30      9.3205   3.7173  40.8539   C.2       1 RES1   0.0000
   102 C31      8.5106   4.6335  41.6751   C.2       1 RES1   0.0000
   103 C32     10.9159   2.0449  39.3791   C.2       1 RES1   0.0000
   104 H32     11.4615   1.4893  38.8705   H         1 RES1   0.0000
   105 C33     10.9061   1.9382  40.7367   C.2       1 RES1   0.0000
   106 C34     11.7936   0.9768  41.4212   C.2       1 RES1   0.0000
   107 C35     10.1230   2.7858  41.4763   C.2       1 RES1   0.0000
   108 H35     10.1344   2.7329  42.4048   H         1 RES1   0.0000
   109 C36      9.4579  17.1555  23.0411   C.2       1 RES1   0.0000
   110 H36      9.4072  16.3836  23.5582   H         1 RES1   0.0000
   111 C37      7.3143  17.7036  24.0309   C.3       1 RES1   0.0000
   112 H37A     6.5514  17.4206  23.5223   H         1 RES1   0.0000
   113 H37B     7.1022  18.5149  24.5005   H         1 RES1   0.0000
   114 H37C     7.5478  17.0209  24.6647   H         1 RES1   0.0000
   115 C38      8.4793  19.2198  22.4708   C.3       1 RES1   0.0000
   116 H38A     8.6396  19.9112  23.1166   H         1 RES1   0.0000
   117 H38B     7.6414  19.3800  22.0308   H         1 RES1   0.0000
   118 H38C     9.1865  19.2195  21.8204   H         1 RES1   0.0000
   119 C39     12.2708  19.5610  23.3579   C.2       1 RES1   0.0000
   120 H39     11.5032  19.3659  23.8459   H         1 RES1   0.0000
   121 C40     13.9102  21.2585  22.4844   C.3       1 RES1   0.0000
   122 H40A    14.3914  21.7947  23.1206   H         1 RES1   0.0000
   123 H40B    13.7457  21.7740  21.6922   H         1 RES1   0.0000
   124 H40C    14.4296  20.4835  22.2620   H         1 RES1   0.0000
   125 C41     11.6404  21.8908  23.5347   C.3       1 RES1   0.0000
   126 H41A    10.7843  21.8060  23.1098   H         1 RES1   0.0000
   127 H41B    12.0479  22.7196  23.2714   H         1 RES1   0.0000
   128 H41C    11.5280  21.8783  24.4879   H         1 RES1   0.0000
   129 C42     12.3016  15.8637  20.4487   C.2       1 RES1   0.0000
   130 H42     11.4112  15.7037  20.6663   H         1 RES1   0.0000
   131 C43     11.8246  14.9716  18.2594   C.3       1 RES1   0.0000
   132 H43A    11.9550  14.0212  18.2201   H         1 RES1   0.0000
   133 H43B    12.0137  15.3561  17.4004   H         1 RES1   0.0000
   134 H43C    10.9151  15.1601  18.5014   H         1 RES1   0.0000
   135 C44     14.0548  15.7421  18.8658   C.3       1 RES1   0.0000
   136 H44A    14.4286  16.4550  19.3899   H         1 RES1   0.0000
   137 H44B    14.0953  15.9750  17.9352   H         1 RES1   0.0000
   138 H44C    14.5566  14.9378  19.0164   H         1 RES1   0.0000
   139 C45      8.7576   9.8142  24.7444   C.2       1 RES1   0.0000
   140 C46      9.5439  10.6757  23.8307   C.2       1 RES1   0.0000
   141 C47     10.2887  11.7144  24.3045   C.2       1 RES1   0.0000
   142 H47     10.3790  11.8367  25.2220   H         1 RES1   0.0000
   143 C48     10.9100  12.5845  23.4375   C.2       1 RES1   0.0000
   144 C49     11.6609  13.7759  23.9256   C.2       1 RES1   0.0000
   145 C50     10.7915  12.3773  22.0799   C.2       1 RES1   0.0000
   146 H50     11.1790  12.9761  21.4831   H         1 RES1   0.0000
   147 C51     10.1088  11.3000  21.6136   C.2       1 RES1   0.0000
   148 C52      9.4637  10.4571  22.4725   C.2       1 RES1   0.0000
   149 H52      8.9721   9.7399  22.1428   H         1 RES1   0.0000
   150 C53      9.6748  12.0557  19.3063   C.2       1 RES1   0.0000
   151 C54     10.4140   9.8643  19.6020   C.2       1 RES1   0.0000
   152 C55      9.8247  11.4205  17.9810   C.2       1 RES1   0.0000
   153 C56     10.2544  10.1251  18.1575   C.2       1 RES1   0.0000
   154 C57      9.6270  11.9638  16.7594   C.2       1 RES1   0.0000
   155 H57      9.3528  12.8445  16.6443   H         1 RES1   0.0000
   156 C58     10.4624   9.3059  17.1017   C.2       1 RES1   0.0000
   157 H58     10.7324   8.4225  17.2102   H         1 RES1   0.0000
   158 C59      9.8600  11.1218  15.6996   C.2       1 RES1   0.0000
   159 C60     10.2528   9.8521  15.8631   C.2       1 RES1   0.0000
   160 C61      9.7721  11.4011  14.2646   C.2       1 RES1   0.0000
   161 C62     10.4503   9.2354  14.5355   C.2       1 RES1   0.0000
   162 C63     10.1743  10.1209  12.2242   C.2       1 RES1   0.0000
   163 C64     10.9974  10.9396  11.4849   C.2       1 RES1   0.0000
   164 H64     11.5579  11.5470  11.9114   H         1 RES1   0.0000
   165 C65     10.9879  10.8537  10.1246   C.2       1 RES1   0.0000
   166 C66     11.8174  11.7552   9.3017   C.2       1 RES1   0.0000
   167 C67     10.1777   9.9334   9.5138   C.2       1 RES1   0.0000
   168 H67     10.1702   9.8823   8.5853   H         1 RES1   0.0000
   169 C68      9.3768   9.0832  10.2368   C.2       1 RES1   0.0000
   170 C69      8.4878   8.1143   9.5580   C.2       1 RES1   0.0000
   171 C70      9.3744   9.1777  11.5977   C.2       1 RES1   0.0000
   172 H70      8.8384   8.6101  12.1039   H         1 RES1   0.0000
   173 Zn1      5.8093   4.7311  40.1891   Zn        1 RES1   0.0000
   174 Zn2      6.7990   6.4455   8.7592   Zn        1 RES1   0.0000
   175 Zn2      7.0612   6.4533  42.7492   Zn        1 RES1   0.0000
   176 Zn3     12.2620   2.4083  23.2033   Zn        1 RES1   0.0000
   177 Zn3     14.5162  11.8664  10.7867   Zn        1 RES1   0.0000
   178 Zn4     13.2764  13.5802   8.2283   Zn        1 RES1   0.0000
   179 Zn4     13.5019   0.6944  25.7617   Zn        1 RES1   0.0000
   180 Zn4     13.5619  14.9613  25.7617   Zn        1 RES1   0.0000
   181 O11     14.8174   0.6031  42.9603   O.3       1 RES1   0.0000
   182 O15      5.0951   9.5318  25.1094   O.3       1 RES1   0.0000
   183 O16      6.2270   8.9646  26.8772   O.3       1 RES1   0.0000
   184 O21     14.7624  -1.7826  41.2210   O.3       1 RES1   0.0000
   185 O22     11.4747  17.1665  25.0285   O.3       1 RES1   0.0000
   186 O27      5.8917   6.7976  23.7481   O.3       1 RES1   0.0000
   187 O28      5.0023   6.2961  25.6492   O.3       1 RES1   0.0000
   188 O29     11.8152  -2.3701  42.0956   O.3       1 RES1   0.0000
   189 O30     12.9402  -1.8075  43.8603   O.3       1 RES1   0.0000
   190 O30     14.1003  16.0900  24.1196   O.3       1 RES1   0.0000
@<TRIPOS>BOND
     1     1     5    1
     2     1     6    1
     3     1     7    1
     4     1     8    1
     5     1     9    1
     6     1   183    1
     7     2    10    1
     8     2    11    1
     9     2   182    1
    10     2   183    1
    11     2   186    1
    12     2   187    1
    13     3    12    1
    14     3    13    1
    15     3    14    1
    16     3    16    1
    17     3   185    1
    18     3   190    1
    19     4    17    1
    20     4    18    1
    21     4   181    1
    22     4   184    1
    23     4   188    1
    24     4   189    1
    25     5    45    2
    26     6    65    2
    27     7    55    2
    28     8   139   un
    29     9    75   un
    30    10    75   un
    31    11   139   un
    32    12   119    2
    33    13   129    2
    34    14   144   un
    35    15   144   un
    36    15   180    1
    37    16   109    2
    38    17   106   un
    39    18   106   un
    40    19   102   un
    41    19   175    1
    42    20   102   un
    43    20   173    1
    44    20   175    1
    45    21    97    2
    46    22    96    2
    47    23    86    2
    48    24    87    2
    49    25    80   un
    50    25   179    1
    51    26    80   un
    52    26   176    1
    53    27   151    2
    54    28   150    2
    55    29   160    2
    56    30   161    2
    57    31   170   un
    58    31   174    1
    59    32   170   un
    60    32   174    1
    61    33   166   un
    62    33   178    1
    63    34   166   un
    64    34   177    1
    65    34   178    1
    66    35    45   am
    67    35    47    1
    68    35    51    1
    69    36    65   am
    70    36    67    1
    71    36    71    1
    72    37    55   am
    73    37    57    1
    74    37    61    1
    75    38   109   am
    76    38   111    1
    77    38   115    1
    78    39   119   am
    79    39   121    1
    80    39   125    1
    81    40   129   am
    82    40   131    1
    83    40   135    1
    84    41    83    1
    85    41    86   am
    86    41    87   am
    87    42    96   am
    88    42    97   am
    89    42    98    1
    90    43   147    1
    91    43   150   am
    92    43   151   am
    93    44   160   am
    94    44   161   am
    95    44   162    1
    96    45    46    1
    97    47    48    1
    98    47    49    1
    99    47    50    1
   100    51    52    1
   101    51    53    1
   102    51    54    1
   103    55    56    1
   104    57    58    1
   105    57    59    1
   106    57    60    1
   107    61    62    1
   108    61    63    1
   109    61    64    1
   110    65    66    1
   111    67    68    1
   112    67    69    1
   113    67    70    1
   114    71    72    1
   115    71    73    1
   116    71    74    1
   117    75    76    1
   118    76    77    2
   119    76    84    1
   120    77    78    1
   121    77    79    1
   122    79    80    1
   123    79    81    2
   124    81    82    1
   125    81    83    1
   126    83    84    2
   127    84    85    1
   128    86    88    1
   129    87    89    1
   130    88    89    1
   131    88    92    2
   132    89    90    2
   133    90    91    1
   134    90    95    1
   135    92    93    1
   136    92    94    1
   137    94    95    2
   138    94    97    1
   139    95    96    1
   140    98    99    2
   141    98   103    1
   142    99   100    1
   143    99   101    1
   144   101   102    1
   145   101   107    2
   146   103   104    1
   147   103   105    2
   148   105   106    1
   149   105   107    1
   150   107   108    1
   151   109   110    1
   152   111   112    1
   153   111   113    1
   154   111   114    1
   155   115   116    1
   156   115   117    1
   157   115   118    1
   158   119   120    1
   159   121   122    1
   160   121   123    1
   161   121   124    1
   162   125   126    1
   163   125   127    1
   164   125   128    1
   165   129   130    1
   166   131   132    1
   167   131   133    1
   168   131   134    1
   169   135   136    1
   170   135   137    1
   171   135   138    1
   172   139   140    1
   173   140   141    2
   174   140   148    1
   175   141   142    1
   176   141   143    1
   177   143   144    1
   178   143   145    2
   179   145   146    1
   180   145   147    1
   181   147   148    2
   182   148   149    1
   183   150   152    1
   184   151   153    1
   185   152   153    1
   186   152   154    2
   187   153   156    2
   188   154   155    1
   189   154   158    1
   190   156   157    1
   191   156   159    1
   192   158   159    2
   193   158   160    1
   194   159   161    1
   195   162   163    2
   196   162   171    1
   197   163   164    1
   198   163   165    1
   199   165   166    1
   200   165   167    2
   201   167   168    1
   202   167   169    1
   203   169   170    1
   204   169   171    2
   205   171   172    1
   206   180   190    1
@<TRIPOS>SUBSTRUCTURE
     1 RES1        1 GROUP             0 ****  ****    0  
@<TRIPOS>CRYSIN
   13.2280   14.2670   33.9910   89.9850   89.5580   89.7590     2     1
