####################################################################### 
# 
# This file contains crystal structure data downloaded from the 
# Cambridge Structural Database (CSD) hosted by the Cambridge 
# Crystallographic Data Centre (CCDC).
# 
# Full information about CCDC data access policies and citation 
# guidelines are available at http://www.ccdc.cam.ac.uk/access/V1 
# 
# Audit and citation data items may have been added by the CCDC. 
# Please retain this information to preserve the provenance of 
# this file and to allow appropriate attribution of the data. 
# 
#######################################################################
@<TRIPOS>MOLECULE
LERPAD
   168   186     1     0     0
SMALL
NO_CHARGES
****
Generated from the CSD

@<TRIPOS>ATOM
     1 Cd1     13.3439  14.8755  42.1041   Cd        1 RES1   0.0000
     2 Cd4      3.6338  18.2313  39.4026   Cd        1 RES1   0.0000
     3 Cd2     14.3477  26.1433  58.9786   Cd        1 RES1   0.0000
     4 Cd3      5.5864  18.2342  26.0012   Cd        1 RES1   0.0000
     5 O1      12.1779  14.6770  40.0478   O.co2     1 RES1   0.0000
     6 O4       5.6306  17.2551  39.2241   O.co2     1 RES1   0.0000
     7 O6      10.9810  15.1979  41.8115   O.co2     1 RES1   0.0000
     8 O8       6.0862  16.2726  41.1184   O.co2     1 RES1   0.0000
     9 O10     14.6456  22.0072  41.5310   O.co2     1 RES1   0.0000
    10 O12     14.3653  23.3117  43.3225   O.co2     1 RES1   0.0000
    11 C1       7.6834  16.1578  39.3826   C.2       1 RES1   0.0000
    12 C4       9.9611  15.3640  39.6781   C.2       1 RES1   0.0000
    13 C6      14.0591  19.7696  42.9977   C.2       1 RES1   0.0000
    14 H6      14.1084  19.6900  42.0724   H         1 RES1   0.0000
    15 C8      13.8507  18.6190  43.8328   C.2       1 RES1   0.0000
    16 C10      8.7143  15.7948  40.1955   C.2       1 RES1   0.0000
    17 H10      8.5974  15.8309  41.1172   H         1 RES1   0.0000
    18 O14      3.3861  17.6817  37.1364   O.3       1 RES1   0.0000
    19 H14A     3.7064  16.8909  36.6703   H         1 RES1   0.0000
    20 H14B     2.9427  18.1973  36.4419   H         1 RES1   0.0000
    21 C12     10.0717  15.2717  38.2798   C.2       1 RES1   0.0000
    22 H12     10.8521  14.9394  37.8968   H         1 RES1   0.0000
    23 C14     11.0824  15.0666  40.5838   C.2       1 RES1   0.0000
    24 C16      7.7645  16.0634  38.0350   C.2       1 RES1   0.0000
    25 H16      7.0326  16.2453  37.4916   H         1 RES1   0.0000
    26 C18      6.3647  16.6500  39.9621   C.2       1 RES1   0.0000
    27 C20     14.4316  22.2267  42.7472   C.2       1 RES1   0.0000
    28 C22     13.7991  18.7831  45.1704   C.2       1 RES1   0.0000
    29 H22     13.6497  18.0347  45.7023   H         1 RES1   0.0000
    30 C24     14.0923  21.1048  45.0176   C.2       1 RES1   0.0000
    31 H24     14.1253  21.9392  45.4264   H         1 RES1   0.0000
    32 C26     14.1864  21.0043  43.6165   C.2       1 RES1   0.0000
    33 C28     13.7142  17.2571  43.1569   C.2       1 RES1   0.0000
    34 N1       9.1533  15.5384  36.0408   N.am      1 RES1   0.0000
    35 O16      6.2171  16.0327  25.3189   O.co2     1 RES1   0.0000
    36 O18     10.9902  16.8715  35.7332   O.2       1 RES1   0.0000
    37 C30      9.0297  15.6717  37.4797   C.2       1 RES1   0.0000
    38 O20      7.2647  14.1252  35.7068   O.2       1 RES1   0.0000
    39 C32     13.9558  19.9808  45.7764   C.2       1 RES1   0.0000
    40 O22     12.3992  14.5067  24.0983   O.co2     1 RES1   0.0000
    41 O24     11.1654  16.6582  29.8026   O.2       1 RES1   0.0000
    42 O26      7.5709  13.9735  29.7056   O.2       1 RES1   0.0000
    43 O28     13.2826  17.7247  57.7895   O.co2     1 RES1   0.0000
    44 C34     10.0109  16.1926  35.2949   C.2       1 RES1   0.0000
    45 O30     14.0646  24.7925  57.1614   O.co2     1 RES1   0.0000
    46 O32      7.4178  15.4215  23.6016   O.co2     1 RES1   0.0000
    47 N4       9.4078  15.2348  29.3209   N.am      1 RES1   0.0000
    48 O33     12.7257  13.3069  26.1582   O.co2     1 RES1   0.0000
    49 C36      8.1998  14.8164  35.2628   C.2       1 RES1   0.0000
    50 O17     13.0982  18.9594  59.4889   O.co2     1 RES1   0.0000
    51 C38      7.3864  15.7107  24.9099   C.2       1 RES1   0.0000
    52 C40      8.1592  14.5129  32.7069   C.2       1 RES1   0.0000
    53 H40      7.4297  13.9369  32.7022   H         1 RES1   0.0000
    54 C42      8.6590  14.9928  33.9131   C.2       1 RES1   0.0000
    55 C44      9.7490  15.8542  33.9203   C.2       1 RES1   0.0000
    56 C46     10.3410  16.2378  32.7219   C.2       1 RES1   0.0000
    57 H46     11.0702  16.8137  32.7271   H         1 RES1   0.0000
    58 C48      9.8412  15.7578  31.5163   C.2       1 RES1   0.0000
    59 C50      8.7512  14.8964  31.5092   C.2       1 RES1   0.0000
    60 C52     10.1658  16.0060  30.0867   C.2       1 RES1   0.0000
    61 O9       4.8192  20.2413  26.7235   O.3       1 RES1   0.0000
    62 H9A      5.0469  20.6913  27.5405   H         1 RES1   0.0000
    63 H9B      4.1873  20.8339  26.3089   H         1 RES1   0.0000
    64 O19     14.0886  23.7937  59.0043   O.co2     1 RES1   0.0000
    65 C54     14.1255  23.7280  57.9337   C.2       1 RES1   0.0000
    66 C56     10.6693  14.6626  27.3580   C.2       1 RES1   0.0000
    67 H56     11.3578  14.3940  27.9222   H         1 RES1   0.0000
    68 C58     10.8297  14.5847  25.9791   C.2       1 RES1   0.0000
    69 C60      9.8006  14.9846  25.1361   C.2       1 RES1   0.0000
    70 H60      9.9078  14.9339  24.2137   H         1 RES1   0.0000
    71 C62      8.6092  15.4625  25.6707   C.2       1 RES1   0.0000
    72 C64      8.4487  15.5404  27.0497   C.2       1 RES1   0.0000
    73 H64      7.6517  15.8598  27.4075   H         1 RES1   0.0000
    74 C66      9.4779  15.1405  27.8926   C.2       1 RES1   0.0000
    75 C68     13.2716  18.8466  58.3776   C.2       1 RES1   0.0000
    76 C17      8.3621  14.5621  30.1045   C.2       1 RES1   0.0000
    77 C35     12.1705  14.0945  25.3881   C.2       1 RES1   0.0000
    78 O5       7.7166  18.8548  25.9448   O.3       1 RES1   0.0000
    79 H5A      8.2297  19.3803  26.6451   H         1 RES1   0.0000
    80 H5B      8.4189  18.6834  25.2378   H         1 RES1   0.0000
    81 C9      13.5132  19.8496  56.1243   C.2       1 RES1   0.0000
    82 H9      13.4411  19.0053  55.7399   H         1 RES1   0.0000
    83 C37     13.4597  19.9890  57.5033   C.2       1 RES1   0.0000
    84 C19     13.5630  21.2484  58.0786   C.2       1 RES1   0.0000
    85 H19     13.5260  21.3407  59.0032   H         1 RES1   0.0000
    86 C39     13.7216  22.3703  57.2756   C.2       1 RES1   0.0000
    87 C5      13.7769  22.2287  55.8916   C.2       1 RES1   0.0000
    88 H5      13.8836  22.9796  55.3522   H         1 RES1   0.0000
    89 C41     13.6718  20.9674  55.3163   C.2       1 RES1   0.0000
    90 O21     13.7031  17.1546  41.9235   O.co2     1 RES1   0.0000
    91 O11     13.6202  16.2870  43.9335   O.co2     1 RES1   0.0000
    92 N6      13.9245  20.0342  47.1603   N.2       1 RES1   0.0000
    93 N3      13.7400  20.7602  53.8446   N.2       1 RES1   0.0000
    94 C21     14.9038  20.6987  47.9212   C.2       1 RES1   0.0000
    95 O23     15.9071  21.2237  47.4794   O.2       1 RES1   0.0000
    96 C43     12.9654  19.5788  47.9854   C.2       1 RES1   0.0000
    97 O3      11.9677  18.9697  47.7427   O.2       1 RES1   0.0000
    98 C11     12.9046  21.4863  53.0245   C.2       1 RES1   0.0000
    99 O25     15.4368  19.1317  53.7025   O.2       1 RES1   0.0000
   100 C45     14.6290  19.8598  53.1672   C.2       1 RES1   0.0000
   101 C23     13.2845  19.9460  49.3894   C.2       1 RES1   0.0000
   102 C47     14.4907  20.6372  49.3394   C.2       1 RES1   0.0000
   103 C3      15.0642  21.1171  50.5099   C.2       1 RES1   0.0000
   104 H3      15.8705  21.5809  50.4759   H         1 RES1   0.0000
   105 C49     14.4353  20.9079  51.7305   C.2       1 RES1   0.0000
   106 C25     13.2310  20.2147  51.7811   C.2       1 RES1   0.0000
   107 C51     12.6556  19.7347  50.6106   C.2       1 RES1   0.0000
   108 H51     11.8497  19.2712  50.6445   H         1 RES1   0.0000
   109 C13     14.7304  19.3430  48.0354   C.2       1 RES1   0.0000
   110 O13     15.5936  18.5062  47.7784   O.2       1 RES1   0.0000
   111 C53     13.1388  20.8566  47.8855   C.2       1 RES1   0.0000
   112 O27     12.2959  21.6278  47.6000   O.2       1 RES1   0.0000
   113 C27     13.3841  20.7110  49.3558   C.2       1 RES1   0.0000
   114 C55     14.3874  19.7470  49.4201   C.2       1 RES1   0.0000
   115 C7      14.8743  19.4168  50.7048   C.2       1 RES1   0.0000
   116 H7      15.5507  18.7883  50.8122   H         1 RES1   0.0000
   117 C57     14.3173  20.0588  51.7897   C.2       1 RES1   0.0000
   118 C29     13.3177  21.0145  51.7326   C.2       1 RES1   0.0000
   119 C59     12.8640  21.3181  50.4407   C.2       1 RES1   0.0000
   120 H59     12.1917  21.9521  50.3337   H         1 RES1   0.0000
   121 O7      12.0728  22.2780  53.4670   O.2       1 RES1   0.0000
   122 C15     12.7533  20.1162  53.1601   C.2       1 RES1   0.0000
   123 C61     14.7655  21.2607  53.0602   C.2       1 RES1   0.0000
   124 O29     11.6873  19.5091  53.4506   O.2       1 RES1   0.0000
   125 O15     15.7190  21.8862  53.5605   O.2       1 RES1   0.0000
   126 C31      0.6234  18.8097  40.1891   C.2       1 RES1   0.0000
   127 H31      0.9092  18.8126  41.0737   H         1 RES1   0.0000
   128 O31      1.4201  18.8487  39.3034   O.2       1 RES1   0.0000
   129 N2      -0.6824  18.7625  39.9108   N.am      1 RES1   0.0000
   130 C63     -1.6912  18.6538  40.8765   C.3       1 RES1   0.0000
   131 H63A    -1.6268  17.7997  41.3126   H         1 RES1   0.0000
   132 H63B    -2.5493  18.7351  40.4572   H         1 RES1   0.0000
   133 H63C    -1.5860  19.3518  41.5293   H         1 RES1   0.0000
   134 C2      -1.1398  18.7359  38.5439   C.3       1 RES1   0.0000
   135 H2A     -1.5436  19.5793  38.3249   H         1 RES1   0.0000
   136 H2B     -1.7869  18.0346  38.4361   H         1 RES1   0.0000
   137 H2C     -0.3951  18.5766  37.9597   H         1 RES1   0.0000
   138 C65      5.2157  20.8628  39.1563   C.2       1 RES1   0.0000
   139 H65      5.6963  20.2307  39.6374   H         1 RES1   0.0000
   140 O2       4.3341  20.3049  38.7316   O.2       1 RES1   0.0000
   141 N5       5.8686  21.9601  39.2819   N.am      1 RES1   0.0000
   142 C33      7.1042  22.3805  39.8201   C.3       1 RES1   0.0000
   143 H33A     6.9546  22.8216  40.6568   H         1 RES1   0.0000
   144 H33B     7.5261  22.9896  39.2066   H         1 RES1   0.0000
   145 H33C     7.6710  21.6182  39.9522   H         1 RES1   0.0000
   146 C67      5.3743  23.0512  38.5996   C.3       1 RES1   0.0000
   147 H67A     5.9686  23.2766  37.8805   H         1 RES1   0.0000
   148 H67B     5.3013  23.7977  39.1999   H         1 RES1   0.0000
   149 H67C     4.5072  22.8414  38.2447   H         1 RES1   0.0000
   150 Cd5      4.1224  15.8895  42.1041   Cd        1 RES1   0.0000
   151 Cd6     14.3206  25.1305  42.1041   Cd        1 RES1   0.0000
   152 Cd7     14.8092  22.7887  39.4026   Cd        1 RES1   0.0000
   153 Cd8     12.8553  12.5337  39.4026   Cd        1 RES1   0.0000
   154 Cd9     13.3168  15.8883  58.9786   Cd        1 RES1   0.0000
   155 Cd10     5.1262  15.8883  23.2911   Cd        1 RES1   0.0000
   156 Cd11    14.3477  14.8767  23.2911   Cd        1 RES1   0.0000
   157 Cd12    14.8079  12.5308  26.0012   Cd        1 RES1   0.0000
   158 Cd13    12.8566  18.2342  61.6887   Cd        1 RES1   0.0000
   159 O34      2.9564  16.0880  40.0478   O.3       1 RES1   0.0000
   160 O35     15.3077  14.4924  41.1184   O.3       1 RES1   0.0000
   161 O36      3.7974  19.0128  41.5310   O.3       1 RES1   0.0000
   162 O37     13.2992  13.0567  43.3225   O.3       1 RES1   0.0000
   163 O38     15.4386  26.2877  61.0064   O.3       1 RES1   0.0000
   164 O39     12.3992  26.5133  59.7858   O.3       1 RES1   0.0000
   165 O40     14.3819  27.9797  57.7895   O.3       1 RES1   0.0000
   166 O41     16.6393  25.6765  59.2891   O.3       1 RES1   0.0000
   167 O42      3.5042  17.4581  26.1582   O.3       1 RES1   0.0000
   168 O43      5.3448  18.9594  23.8014   O.3       1 RES1   0.0000
@<TRIPOS>BOND
     1     1     5    1
     2     1     7    1
     3     1    90    1
     4     1    91    1
     5     1   160    1
     6     1   162    1
     7     2     6    1
     8     2    18    1
     9     2   128    1
    10     2   140    1
    11     2   159    1
    12     2   161    1
    13     3    45    1
    14     3    64    1
    15     3   163    1
    16     3   164    1
    17     3   165    1
    18     3   166    1
    19     4    35    1
    20     4    61    1
    21     4    78    1
    22     4   167    1
    23     4   168    1
    24     5    23   un
    25     5   153    1
    26     6    26   un
    27     7    23   un
    28     8    26   un
    29     8   150    1
    30     9    27   un
    31     9   152    1
    32    10    27   un
    33    10   151    1
    34    11    16    1
    35    11    24    2
    36    11    26    1
    37    12    16    2
    38    12    21    1
    39    12    23    1
    40    13    14    1
    41    13    15    1
    42    13    32    2
    43    15    28    2
    44    15    33    1
    45    16    17    1
    46    18    19    1
    47    18    20    1
    48    21    22    1
    49    21    37    2
    50    24    25    1
    51    24    37    1
    52    27    32    1
    53    28    29    1
    54    28    39    1
    55    30    31    1
    56    30    32    1
    57    30    39    2
    58    33    90   un
    59    33    91   un
    60    34    37    1
    61    34    44   am
    62    34    49   am
    63    35    51   un
    64    35   155    1
    65    36    44    2
    66    38    49    2
    67    39    92    1
    68    40    77   un
    69    40   156    1
    70    41    60    2
    71    42    76    2
    72    43    75   un
    73    43   154    1
    74    44    55    1
    75    45    65   un
    76    46    51   un
    77    46   155    1
    78    47    60   am
    79    47    74    1
    80    47    76   am
    81    48    77   un
    82    48   157    1
    83    49    54    1
    84    50    75   un
    85    50   158    1
    86    51    71    1
    87    52    53    1
    88    52    54    1
    89    52    59    2
    90    54    55    2
    91    55    56    1
    92    56    57    1
    93    56    58    2
    94    58    59    1
    95    58    60    1
    96    59    76    1
    97    61    62    1
    98    61    63    1
    99    64    65   un
   100    65    86    1
   101    66    67    1
   102    66    68    1
   103    66    74    2
   104    68    69    2
   105    68    77    1
   106    69    70    1
   107    69    71    1
   108    71    72    2
   109    72    73    1
   110    72    74    1
   111    75    83    1
   112    78    79    1
   113    78    80    1
   114    81    82    1
   115    81    83    2
   116    81    89    1
   117    83    84    1
   118    84    85    1
   119    84    86    2
   120    86    87    1
   121    87    88    1
   122    87    89    2
   123    89    93    1
   124    92    94    1
   125    92    96    1
   126    93   122    1
   127    93   123    1
   128    94    95    2
   129    94   102    1
   130    96    97    2
   131    96   101    1
   132   101   102    1
   133   101   107    2
   134   102   103    2
   135   103   104    1
   136   103   105    1
   137   105   106    2
   138   105   123    1
   139   106   107    1
   140   106   122    1
   141   107   108    1
   142   122   124    2
   143   123   125    2
   144   126   127    1
   145   126   128    2
   146   126   129   am
   147   129   130    1
   148   129   134    1
   149   130   131    1
   150   130   132    1
   151   130   133    1
   152   134   135    1
   153   134   136    1
   154   134   137    1
   155   138   139    1
   156   138   140    2
   157   138   141   am
   158   141   142    1
   159   141   146    1
   160   142   143    1
   161   142   144    1
   162   142   145    1
   163   146   147    1
   164   146   148    1
   165   146   149    1
   166   150   159    1
   167    92   109    1
   168    92   111    1
   169    93    98    1
   170    93   100    1
   171    98   118    1
   172    98   121    2
   173    99   100    2
   174   100   117    1
   175   109   110    2
   176   109   114    1
   177   111   112    2
   178   111   113    1
   179   113   114    1
   180   113   119    2
   181   114   115    2
   182   115   116    1
   183   115   117    1
   184   117   118    2
   185   118   119    1
   186   119   120    1
@<TRIPOS>SUBSTRUCTURE
     1 RES1        1 GROUP             0 ****  ****    0  
@<TRIPOS>CRYSIN
   18.4430   20.5100   71.3750   90.0000   90.0000   90.0000    45     1
