####################################################################### 
# 
# This file contains crystal structure data downloaded from the 
# Cambridge Structural Database (CSD) hosted by the Cambridge 
# Crystallographic Data Centre (CCDC).
# 
# Full information about CCDC data access policies and citation 
# guidelines are available at http://www.ccdc.cam.ac.uk/access/V1 
# 
# Audit and citation data items may have been added by the CCDC. 
# Please retain this information to preserve the provenance of 
# this file and to allow appropriate attribution of the data. 
# 
#######################################################################
@<TRIPOS>MOLECULE
SERTES
    82    78     9     0     0
SMALL
NO_CHARGES
****
Generated from the CSD

@<TRIPOS>ATOM
     1 Zn1     -6.1568  22.1527  13.2377   Zn        1 RES1   0.0000
     2 C1      -6.3183  22.9457  15.7946   C.2       1 RES1   0.0000
     3 C2      -6.8464  23.6438  17.0070   C.2       1 RES1   0.0000
     4 C3      -6.0634  23.7562  18.1323   C.2       1 RES1   0.0000
     5 H3      -5.2258  23.3524  18.1522   H         1 RES1   0.0000
     6 C4      -6.5077  24.4626  19.2332   C.2       1 RES1   0.0000
     7 C5      -7.7524  25.0462  19.1889   C.2       1 RES1   0.0000
     8 H5      -8.0410  25.5469  19.9168   H         1 RES1   0.0000
     9 C6      -8.5956  24.9116  18.0844   C.2       1 RES1   0.0000
    10 C7      -8.1052  24.2172  16.9979   C.2       1 RES1   0.0000
    11 H7      -8.6352  24.1326  16.2388   H         1 RES1   0.0000
    12 C8      -5.6737  24.5766  20.4770   C.2       1 RES1   0.0000
    13 C9      -9.9695  25.5414  18.0647   C.3       1 RES1   0.0000
    14 H9A    -10.1335  25.9783  18.9040   H         1 RES1   0.0000
    15 H9B    -10.0150  26.1864  17.3547   H         1 RES1   0.0000
    16 H9C    -10.6314  24.8617  17.9227   H         1 RES1   0.0000
    17 C10     -3.4997  23.5997  13.4369   C.2       1 RES1   0.0000
    18 H10     -3.4885  23.2464  14.2966   H         1 RES1   0.0000
    19 C11     -2.4361  24.3410  13.0335   C.2       1 RES1   0.0000
    20 H11     -1.7228  24.4852  13.6124   H         1 RES1   0.0000
    21 C12     -2.4147  24.8731  11.7802   C.2       1 RES1   0.0000
    22 C13     -3.5099  24.6323  10.9751   C.2       1 RES1   0.0000
    23 H13     -3.5443  24.9928  10.1179   H         1 RES1   0.0000
    24 C14     -4.5328  23.8723  11.4287   C.2       1 RES1   0.0000
    25 H14     -5.2481  23.7052  10.8587   H         1 RES1   0.0000
    26 C15     -1.2719  25.6676  11.2440   C.3       1 RES1   0.0000
    27 H15A    -0.8273  25.1742  10.5370   H         1 RES1   0.0000
    28 H15B    -1.5933  26.5057  10.8766   H         1 RES1   0.0000
    29 C16      0.7679  26.5613  11.9828   C.2       1 RES1   0.0000
    30 C17      1.6289  26.8046  13.1608   C.2       1 RES1   0.0000
    31 C18      1.3131  26.3762  14.4141   C.2       1 RES1   0.0000
    32 H18      0.5367  25.8844  14.5552   H         1 RES1   0.0000
    33 C19      2.1425  26.6685  15.4720   C.2       1 RES1   0.0000
    34 H19      1.9245  26.3947  16.3341   H         1 RES1   0.0000
    35 C20      3.3177  27.3878  15.2317   C.2       1 RES1   0.0000
    36 H20      3.8806  27.5980  15.9409   H         1 RES1   0.0000
    37 C21      3.6453  27.7792  13.9838   C.2       1 RES1   0.0000
    38 C22      2.8149  27.5350  12.9456   C.2       1 RES1   0.0000
    39 H22      3.0248  27.8469  12.0942   H         1 RES1   0.0000
    40 C23      6.6544  29.4862  13.5158   C.2       1 RES1   0.0000
    41 C24      7.5035  29.7049  14.4948   C.2       1 RES1   0.0000
    42 H24      7.3157  29.3344  15.3275   H         1 RES1   0.0000
    43 C26      8.9339  30.9613  13.2020   C.2       1 RES1   0.0000
    44 C25      8.6273  30.4316  14.3675   C.2       1 RES1   0.0000
    45 H25      9.1865  30.5592  15.0990   H         1 RES1   0.0000
    46 C27      8.1689  30.7119  12.1316   C.2       1 RES1   0.0000
    47 H27      8.3962  31.0392  11.2916   H         1 RES1   0.0000
    48 C28      6.9965  29.9327  12.3270   C.2       1 RES1   0.0000
    49 H28      6.4578  29.7344  11.5952   H         1 RES1   0.0000
    50 C29     10.9459  31.9344  13.9963   C.3       1 RES1   0.0000
    51 H29A    11.5493  31.1790  14.0615   H         1 RES1   0.0000
    52 H29B    10.4709  32.0296  14.8372   H         1 RES1   0.0000
    53 C30     11.7064  33.1939  13.6718   C.2       1 RES1   0.0000
    54 C31     12.9662  33.3849  14.1290   C.2       1 RES1   0.0000
    55 H31     13.3988  32.7279  14.6247   H         1 RES1   0.0000
    56 C32     13.6020  34.6013  13.8385   C.2       1 RES1   0.0000
    57 C33     11.6873  35.4848  13.1984   C.2       1 RES1   0.0000
    58 H33     11.1923  36.2506  13.0156   H         1 RES1   0.0000
    59 C34     11.0269  34.3053  13.1088   C.2       1 RES1   0.0000
    60 N1      -4.5648  23.3500  12.6614   N.2       1 RES1   0.0000
    61 N2A      4.8234  28.5039  14.3029   N.2       1 RES1   0.0000
    62 N3A      5.2167  28.7287  13.2594   N.2       1 RES1   0.0000
    63 N4      12.9416  35.6652  13.5154   N.2       1 RES1   0.0000
    64 O1      -5.1996  22.4181  15.8137   O.co2     1 RES1   0.0000
    65 O2      -7.0662  22.9494  14.7516   O.co2     1 RES1   0.0000
    66 O3      -6.0308  25.3415  21.3599   O.co2     1 RES1   0.0000
    67 O4      -4.6507  23.8473  20.5520   O.co2     1 RES1   0.0000
    68 O5      -0.3545  25.9217  12.3168   O.3       1 RES1   0.0000
    69 O6       1.0008  26.9041  10.8801   O.2       1 RES1   0.0000
    70 O7      10.0187  31.7573  12.9026   O.3       1 RES1   0.0000
    71 Zn2     13.7383  37.5502  13.6576   Zn        1 RES1   0.0000
    72 Zn3     -3.6297  24.0398  22.2028   Zn        1 RES1   0.0000
    73 N7      -5.3601  20.2677  13.3799   N.3       1 RES1   0.0000
    74 O8      -7.1779  22.3452  11.5869   O.3       1 RES1   0.0000
    75 C29A?   11.1718  31.7404  12.7305   C.3       2 RES2   0.0000
    76 H29C?   11.3739  31.5212  11.8122   H         3 RES3   0.0000
    77 H29D?   11.5892  31.0868  13.3124   H         4 RES4   0.0000
    78 C30A?   11.6789  33.2124  13.0873   C.3       5 RES5   0.0000
    79 C31A?   13.1202  33.3110  13.1787   C.3       6 RES6   0.0000
    80 H31A?   13.6985  32.6518  12.8667   H         7 RES7   0.0000
    81 N2?      4.8575  28.5901  13.2361   N.3       8 RES8   0.0000
    82 N3?      5.7243  28.7441  14.1362   N.3       9 RES9   0.0000
@<TRIPOS>BOND
     1     1    60    1
     2     1    65    1
     3     1    73    1
     4     1    74    1
     5     2     3    1
     6     2    64    2
     7     2    65    1
     8     3     4    2
     9     3    10    1
    10     4     5    1
    11     4     6    1
    12     6     7    2
    13     6    12    1
    14     7     8    1
    15     7     9    1
    16     9    10    2
    17     9    13    1
    18    10    11    1
    19    12    66    2
    20    12    67    1
    21    13    14    1
    22    13    15    1
    23    13    16    1
    24    17    18    1
    25    17    19    1
    26    17    60    2
    27    19    20    1
    28    19    21    2
    29    21    22    1
    30    21    26    1
    31    22    23    1
    32    22    24    2
    33    24    25    1
    34    24    60    1
    35    26    27    1
    36    26    28    1
    37    26    68    1
    38    29    30    1
    39    29    68    1
    40    29    69    2
    41    30    31    1
    42    30    38    2
    43    31    32    1
    44    31    33    2
    45    33    34    1
    46    33    35    1
    47    35    36    1
    48    35    37    2
    49    37    38    1
    50    37    61    1
    51    38    39    1
    52    40    41    1
    53    40    48    2
    54    40    62    1
    55    41    42    1
    56    41    44    2
    57    43    44    1
    58    43    46    2
    59    43    70    1
    60    44    45    1
    61    46    47    1
    62    46    48    1
    63    48    49    1
    64    50    51    1
    65    50    52    1
    66    50    53    1
    67    50    70    1
    68    53    54    2
    69    53    59    1
    70    54    55    1
    71    54    56    1
    72    56    63    2
    73    57    58    1
    74    57    59    2
    75    57    63    1
    76    61    62    2
    77    63    71    1
    78    67    72    1
@<TRIPOS>SUBSTRUCTURE
     1 RES1        1 GROUP             0 ****  ****    0  
     2 RES2       75 GROUP             0 ****  ****    0  
     3 RES3       76 GROUP             0 ****  ****    0  
     4 RES4       77 GROUP             0 ****  ****    0  
     5 RES5       78 GROUP             0 ****  ****    0  
     6 RES6       79 GROUP             0 ****  ****    0  
     7 RES7       80 GROUP             0 ****  ****    0  
     8 RES8       81 GROUP             0 ****  ****    0  
     9 RES9       82 GROUP             0 ****  ****    0  
@<TRIPOS>CRYSIN
    7.3767   30.7950   18.0800   90.0000   97.3800   90.0000   231     1
