####################################################################### 
# 
# This file contains crystal structure data downloaded from the 
# Cambridge Structural Database (CSD) hosted by the Cambridge 
# Crystallographic Data Centre (CCDC).
# 
# Full information about CCDC data access policies and citation 
# guidelines are available at http://www.ccdc.cam.ac.uk/access/V1 
# 
# Audit and citation data items may have been added by the CCDC. 
# Please retain this information to preserve the provenance of 
# this file and to allow appropriate attribution of the data. 
# 
#######################################################################
@<TRIPOS>MOLECULE
REGJUM
   120   150     4     0     0
SMALL
USER_CHARGES
****
Generated from the CSD

@<TRIPOS>ATOM
     1 Cu1    -20.7728   0.0000  -7.3857   Cu        1 RES1   0.0000
     2 K1     -19.0484   1.7611  -4.7638   K         1 RES1   0.0000
     3 S1     -16.1625  -0.4240  -4.9137   S.o2      1 RES1   0.0000
     4 O1     -19.5514  -1.0303  -5.2032   O.co2     1 RES1   0.0000
     5 O2     -19.1637  -1.1275  -7.3783   O.co2     1 RES1  -1.0000
     6 O3     -14.7466  -0.3718  -4.7017   O.2       1 RES1   0.0000
     7 O4     -16.7304   0.4466  -5.8458   O.2       1 RES1   0.0000
     8 O5     -16.8862  -0.2389  -3.6264   O.3       1 RES1   0.0000
     9 C1     -18.8949  -1.4479  -6.1693   C.2       1 RES1   0.0000
    10 C2     -17.7774  -2.4055  -5.9736   C.2       1 RES1   0.0000
    11 C3     -18.0349  -3.7121  -6.2845   C.2       1 RES1   0.0000
    12 H3     -18.8708  -3.9434  -6.6190   H         1 RES1   0.0000
    13 C4     -17.0711  -4.7050  -6.1117   C.2       1 RES1   0.0000
    14 H4     -17.2724  -5.5920  -6.3097   H         1 RES1   0.0000
    15 C5     -15.7956  -4.3581  -5.6368   C.2       1 RES1   0.0000
    16 C6     -15.5526  -3.0640  -5.2992   C.2       1 RES1   0.0000
    17 H6     -14.7184  -2.8372  -4.9583   H         1 RES1   0.0000
    18 C7     -16.5081  -2.0773  -5.4455   C.2       1 RES1   0.0000
    19 S1     -10.8104  -5.7761  -6.1648   S.o2      1 RES1   0.0000
    20 O1     -11.4167  -9.1650  -5.8753   O.co2     1 RES1   0.0000
    21 O2     -11.5139  -8.7773  -3.7002   O.co2     1 RES1   0.0000
    22 O3     -10.7582  -4.3602  -6.3768   O.2       1 RES1   0.0000
    23 O4      -9.9398  -6.3440  -5.2328   O.2       1 RES1   0.0000
    24 O5     -10.6253  -6.4998  -7.4522   O.3       1 RES1   0.0000
    25 C1     -11.8343  -8.5085  -4.9093   C.2       1 RES1   0.0000
    26 C2     -12.7919  -7.3910  -5.1050   C.2       1 RES1   0.0000
    27 C3     -14.0985  -7.6485  -4.7941   C.2       1 RES1   0.0000
    28 H3     -14.3298  -8.4844  -4.4596   H         1 RES1   0.0000
    29 C4     -15.0914  -6.6847  -4.9669   C.2       1 RES1   0.0000
    30 H4     -15.9784  -6.8860  -4.7688   H         1 RES1   0.0000
    31 C5     -14.7445  -5.4092  -5.4418   C.2       1 RES1   0.0000
    32 C6     -13.4504  -5.1662  -5.7793   C.2       1 RES1   0.0000
    33 H6     -13.2236  -4.3320  -6.1203   H         1 RES1   0.0000
    34 C7     -12.4637  -6.1217  -5.6331   C.2       1 RES1   0.0000
    35 K1     -19.0117  -1.7244 -10.0076   K         1 RES1   0.0000
    36 S1     -21.1968  -4.6103  -9.8577   S.o2      1 RES1   0.0000
    37 O1     -21.8031  -1.2214  -9.5682   O.co2     1 RES1   0.0000
    38 O2     -21.9003  -1.6091  -7.3931   O.co2     1 RES1  -1.0000
    39 O3     -21.1446  -6.0262 -10.0697   O.2       1 RES1   0.0000
    40 O4     -20.3262  -4.0424  -8.9256   O.2       1 RES1   0.0000
    41 O5     -21.0117  -3.8866 -11.1450   O.3       1 RES1   0.0000
    42 C1     -22.2207  -1.8779  -8.6021   C.2       1 RES1   0.0000
    43 C2     -23.1783  -2.9954  -8.7978   C.2       1 RES1   0.0000
    44 C3     -24.4849  -2.7379  -8.4869   C.2       1 RES1   0.0000
    45 H3     -24.7162  -1.9020  -8.1524   H         1 RES1   0.0000
    46 C4     -25.4778  -3.7017  -8.6597   C.2       1 RES1   0.0000
    47 H4     -26.3648  -3.5004  -8.4617   H         1 RES1   0.0000
    48 C5     -25.1309  -4.9772  -9.1346   C.2       1 RES1   0.0000
    49 C6     -23.8368  -5.2202  -9.4722   C.2       1 RES1   0.0000
    50 H6     -23.6100  -6.0544  -9.8131   H         1 RES1   0.0000
    51 C7     -22.8501  -4.2647  -9.3259   C.2       1 RES1   0.0000
    52 S1     -26.5489  -9.9624  -8.6066   S.o2      1 RES1   0.0000
    53 O1     -29.9378  -9.3561  -8.8961   O.co2     1 RES1   0.0000
    54 O2     -29.5501  -9.2589 -11.0712   O.co2     1 RES1   0.0000
    55 O3     -25.1330 -10.0146  -8.3946   O.2       1 RES1   0.0000
    56 O4     -27.1168 -10.8330  -9.5386   O.2       1 RES1   0.0000
    57 O5     -27.2726 -10.1475  -7.3192   O.3       1 RES1   0.0000
    58 C1     -29.2813  -8.9385  -9.8621   C.2       1 RES1   0.0000
    59 C2     -28.1638  -7.9809  -9.6664   C.2       1 RES1   0.0000
    60 C3     -28.4213  -6.6743  -9.9773   C.2       1 RES1   0.0000
    61 H3     -29.2572  -6.4430 -10.3118   H         1 RES1   0.0000
    62 C4     -27.4575  -5.6814  -9.8045   C.2       1 RES1   0.0000
    63 H4     -27.6588  -4.7944 -10.0026   H         1 RES1   0.0000
    64 C5     -26.1820  -6.0283  -9.3296   C.2       1 RES1   0.0000
    65 C6     -25.9390  -7.3224  -8.9921   C.2       1 RES1   0.0000
    66 H6     -25.1048  -7.5492  -8.6511   H         1 RES1   0.0000
    67 C7     -26.8945  -8.3091  -9.1383   C.2       1 RES1   0.0000
    68 K1     -22.4972  -1.7611  -4.7638   K         1 RES1   0.0000
    69 K1     -22.5339   1.7244 -10.0076   K         1 RES1   0.0000
    70 Cu1    -31.1592 -10.3864 -11.0785   Cu        1 RES1   0.0000
    71 Cu1    -10.3864 -10.3864  -3.6928   Cu        1 RES1   0.0000
    72 K1     -19.0117  -1.7244  -2.6219   K         1 RES1   0.0000
    73 K1     -22.4972  -1.7611 -12.1495   K         1 RES1   0.0000
    74 K1     -32.8836  -8.6253  -8.4566   K         1 RES1   0.0000
    75 K1     -12.1108  -8.6253  -8.4566   K         1 RES1   0.0000
    76 K1     -12.1108  -8.6253  -1.0709   K         1 RES1   0.0000
    77 K1     -29.3981  -8.6620 -13.7005   K         1 RES1   0.0000
    78 K1     -29.3981  -8.6620  -6.3148   K         1 RES1   0.0000
    79 K1      -8.6253  -8.6620  -6.3148   K         1 RES1   0.0000
    80 K1     -29.4348 -12.1475  -8.4566   K         1 RES1   0.0000
    81 K1     -12.1475 -12.1108  -6.3148   K         1 RES1   0.0000
    82 O1     -19.5514  -1.0303 -12.5889   O.3       1 RES1   0.0000
    83 O1     -21.8031  -1.2214  -2.1825   O.3       1 RES1   0.0000
    84 O1     -21.9942   1.0303 -12.5889   O.3       1 RES1   0.0000
    85 O1     -21.9942   1.0303  -5.2032   O.3       1 RES1   0.0000
    86 O1     -19.7425   1.2214  -9.5682   O.3       1 RES1   0.0000
    87 O1     -19.7425   1.2214  -2.1825   O.3       1 RES1   0.0000
    88 O2     -22.3819   1.1275  -7.3783   O.3       1 RES1   0.0000
    89 O2     -19.6453   1.6091  -7.3931   O.3       1 RES1   0.0000
    90 O4     -24.8152  -0.4466  -5.8458   O.3       1 RES1   0.0000
    91 O4     -21.2194   4.0424  -8.9256   O.3       1 RES1   0.0000
    92 O5     -16.8862  -0.2389 -11.0121   O.3       1 RES1   0.0000
    93 O5     -21.0117  -3.8866  -3.7593   O.3       1 RES1   0.0000
    94 O5     -24.6594   0.2389 -11.0121   O.3       1 RES1   0.0000
    95 O5     -24.6594   0.2389  -3.6264   O.3       1 RES1   0.0000
    96 O5     -20.5339   3.8866 -11.1450   O.3       1 RES1   0.0000
    97 O5     -20.5339   3.8866  -3.7593   O.3       1 RES1   0.0000
    98 N1     -15.1641   4.7777  -5.5393   N.4       2 RES2   1.0000
    99 H1A    -14.7217   4.4356  -4.8364   H         2 RES2   0.0000
   100 C8     -16.5081   4.1753  -5.3989   C.3       2 RES2   0.0000
   101 H8A    -16.4412   3.2298  -5.3377   H         2 RES2   0.0000
   102 H8B    -17.0376   4.4184  -6.1677   H         2 RES2   0.0000
   103 H8C    -16.9263   4.5297  -4.6080   H         2 RES2   0.0000
   104 H1A    -14.8220   4.3353  -6.2421   H         2 RES2   0.0000
   105 C8     -14.5617   6.1217  -5.6796   C.3       2 RES2   0.0000
   106 H8A    -13.6162   6.0548  -5.7409   H         2 RES2   0.0000
   107 H8B    -14.8048   6.6512  -4.9108   H         2 RES2   0.0000
   108 H8C    -14.9161   6.5399  -6.4706   H         2 RES2   0.0000
   109 N1     -15.9951  -5.6087  -9.2321   N.4       3 RES3   1.0000
   110 H1A    -16.3372  -6.0511  -9.9350   H         3 RES3   0.0000
   111 C8     -16.5975  -4.2647  -9.3725   C.3       3 RES3   0.0000
   112 H8A    -17.5430  -4.3316  -9.4337   H         3 RES3   0.0000
   113 H8B    -16.3544  -3.7352  -8.6037   H         3 RES3   0.0000
   114 H8C    -16.2431  -3.8465 -10.1634   H         3 RES3   0.0000
   115 H1A    -16.4375  -5.9508  -8.5293   H         3 RES3   0.0000
   116 C8     -14.6511  -6.2111  -9.0918   C.3       3 RES3   0.0000
   117 H8A    -14.7180  -7.1566  -9.0305   H         3 RES3   0.0000
   118 H8B    -14.1216  -5.9680  -9.8606   H         3 RES3   0.0000
   119 H8C    -14.2329  -5.8567  -8.3008   H         3 RES3   0.0000
   120 H1B?   -14.7217   4.4356  -4.8364   H         4 RES4   0.0000
@<TRIPOS>BOND
     1     1     4    1
     2     1     5    1
     3     1    37    1
     4     1    38    1
     5     1    85    1
     6     1    86    1
     7     1    88    1
     8     1    89    1
     9     2     4    1
    10     2     7    1
    11     2     8    1
    12     2    85    1
    13     2    87    1
    14     2    89    1
    15     2    97    1
    16     3     6    2
    17     3     7    2
    18     3     8    1
    19     3    18    1
    20     4     9   un
    21     4    68    1
    22     4    72    1
    23     5     9   un
    24     5    35    1
    25     8    72    1
    26     9    10    1
    27    10    11    2
    28    10    18    1
    29    11    12    1
    30    11    13    1
    31    13    14    1
    32    13    15    2
    33    15    16    1
    34    15    31    1
    35    16    17    1
    36    16    18    2
    37    19    22    2
    38    19    23    2
    39    19    24    1
    40    19    34    1
    41    20    25   un
    42    20    71    1
    43    20    75    1
    44    20    79    1
    45    20    81    1
    46    21    25   un
    47    21    71    1
    48    21    76    1
    49    23    79    1
    50    24    75    1
    51    24    79    1
    52    25    26    1
    53    26    27    2
    54    26    34    1
    55    27    28    1
    56    27    29    1
    57    29    30    1
    58    29    31    2
    59    31    32    1
    60    32    33    1
    61    32    34    2
    62    35    37    1
    63    35    40    1
    64    35    41    1
    65    35    82    1
    66    35    86    1
    67    35    92    1
    68    36    39    2
    69    36    40    2
    70    36    41    1
    71    36    51    1
    72    37    42   un
    73    37    69    1
    74    37    73    1
    75    38    42   un
    76    38    68    1
    77    41    73    1
    78    42    43    1
    79    43    44    2
    80    43    51    1
    81    44    45    1
    82    44    46    1
    83    46    47    1
    84    46    48    2
    85    48    49    1
    86    48    64    1
    87    49    50    1
    88    49    51    2
    89    52    55    2
    90    52    56    2
    91    52    57    1
    92    52    67    1
    93    53    58   un
    94    53    70    1
    95    53    74    1
    96    53    78    1
    97    53    80    1
    98    54    58   un
    99    54    70    1
   100    54    77    1
   101    56    80    1
   102    57    78    1
   103    57    80    1
   104    58    59    1
   105    59    60    2
   106    59    67    1
   107    60    61    1
   108    60    62    1
   109    62    63    1
   110    62    64    2
   111    64    65    1
   112    65    66    1
   113    65    67    2
   114    68    83    1
   115    68    85    1
   116    68    90    1
   117    68    93    1
   118    68    95    1
   119    69    84    1
   120    69    86    1
   121    69    88    1
   122    69    91    1
   123    69    94    1
   124    69    96    1
   125    72    83    1
   126    72    87    1
   127    72    93    1
   128    73    82    1
   129    73    84    1
   130    73    94    1
   131    98    99    1
   132    98   100    1
   133    98   104    1
   134    98   105    1
   135   100   101    1
   136   100   102    1
   137   100   103    1
   138   105   106    1
   139   105   107    1
   140   105   108    1
   141   109   110    1
   142   109   111    1
   143   109   115    1
   144   109   116    1
   145   111   112    1
   146   111   113    1
   147   111   114    1
   148   116   117    1
   149   116   118    1
   150   116   119    1
@<TRIPOS>SUBSTRUCTURE
     1 RES1        1 GROUP             0 ****  ****    0  
     2 RES2       98 GROUP             0 ****  ****    0  
     3 RES3      109 GROUP             0 ****  ****    0  
     4 RES4      120 GROUP             0 ****  ****    0  
@<TRIPOS>CRYSIN
   20.7728   20.7728    7.3857   90.0000   90.0000   90.0000   118     1
