####################################################################### 
# 
# This file contains crystal structure data downloaded from the 
# Cambridge Structural Database (CSD) hosted by the Cambridge 
# Crystallographic Data Centre (CCDC).
# 
# Full information about CCDC data access policies and citation 
# guidelines are available at http://www.ccdc.cam.ac.uk/access/V1 
# 
# Audit and citation data items may have been added by the CCDC. 
# Please retain this information to preserve the provenance of 
# this file and to allow appropriate attribution of the data. 
# 
#######################################################################
@<TRIPOS>MOLECULE
PEMXAK
    86    94     1     0     0
SMALL
NO_CHARGES
****
Generated from the CSD

@<TRIPOS>ATOM
     1 Bi1      5.4195   1.6520   3.3374   Bi        1 RES1   0.0000
     2 O1       6.3998  -0.0869   1.6828   O.co2     1 RES1   0.0000
     3 O2       7.2227   1.7997   2.0907   O.co2     1 RES1   0.0000
     4 O3       6.3144   3.6721   3.7747   O.co2     1 RES1   0.0000
     5 O4       5.1655   3.3551   5.6211   O.co2     1 RES1   0.0000
     6 O5       4.6767   2.6936   1.5192   O.co2     1 RES1   0.0000
     7 O6       3.2703   3.2166   3.0945   O.co2     1 RES1   0.0000
     8 O7       3.4277   0.0071   2.5476   O.2       1 RES1   0.0000
     9 O8       7.3278   0.3737   4.6629   O.3       1 RES1   0.0000
    10 H8A      8.1884   0.3188   4.3070   H         1 RES1   0.0000
    11 H8B      7.1455  -0.0150   5.4884   H         1 RES1   0.0000
    12 N1       2.5744  -1.8944   1.8815   N.am      1 RES1   0.0000
    13 C1       7.3108   0.6837   1.6127   C.2       1 RES1   0.0000
    14 C2       8.5640   0.2981   0.7596   C.2       1 RES1   0.0000
    15 C3       8.5659  -0.9136  -0.0234   C.2       1 RES1   0.0000
    16 H3       7.8269  -1.4763  -0.0464   H         1 RES1   0.0000
    17 C4       9.5438   1.2088   0.7479   C.2       1 RES1   0.0000
    18 H4       9.4571   2.0116   1.2035   H         1 RES1   0.0000
    19 C5       5.8878   4.0328   4.9316   C.2       1 RES1   0.0000
    20 C6       6.3645   5.3606   5.4341   C.2       1 RES1   0.0000
    21 C7       7.5261   5.9411   4.8381   C.2       1 RES1   0.0000
    22 H7       8.0553   5.4787   4.2336   H         1 RES1   0.0000
    23 C8       7.8185   7.2287   5.2238   C.2       1 RES1   0.0000
    24 H8       8.4979   7.6743   4.7697   H         1 RES1   0.0000
    25 C9       3.6157   3.2564   1.8932   C.2       1 RES1   0.0000
    26 C10      2.6741   3.9712   0.9349   C.2       1 RES1   0.0000
    27 C11      2.9290   4.1228  -0.4791   C.2       1 RES1   0.0000
    28 H11      3.7501   3.7953  -0.7698   H         1 RES1   0.0000
    29 C12      1.5005   4.6357   1.3089   C.2       1 RES1   0.0000
    30 H12      1.2555   4.7022   2.2032   H         1 RES1   0.0000
    31 C13      3.4474  -0.8667   2.0217   C.2       1 RES1   0.0000
    32 H13      4.2391  -0.9819   1.5406   H         1 RES1   0.0000
    33 C14      1.3653  -1.7968   2.6762   C.3       1 RES1   0.0000
    34 H14A     1.4210  -1.0569   3.2757   H         1 RES1   0.0000
    35 H14B     1.2446  -2.6116   3.1773   H         1 RES1   0.0000
    36 H14C     0.6066  -1.6798   2.0899   H         1 RES1   0.0000
    37 C15      2.6140  -3.0758   1.0518   C.3       1 RES1   0.0000
    38 H15A     1.9112  -3.0383   0.3977   H         1 RES1   0.0000
    39 H15B     2.5088  -3.8602   1.5915   H         1 RES1   0.0000
    40 H15C     3.4643  -3.1176   0.5948   H         1 RES1   0.0000
    41 O1      12.8582   0.0869  -1.6828   O.co2     1 RES1   0.0000
    42 O2      12.0353  -1.7997  -2.0907   O.co2     1 RES1   0.0000
    43 C1      11.9472  -0.6837  -1.6127   C.2       1 RES1   0.0000
    44 C2      10.6940  -0.2981  -0.7596   C.2       1 RES1   0.0000
    45 C3      10.6921   0.9136   0.0234   C.2       1 RES1   0.0000
    46 H3      11.4311   1.4763   0.0464   H         1 RES1   0.0000
    47 C4       9.7142  -1.2088  -0.7479   C.2       1 RES1   0.0000
    48 H4       9.8009  -2.0116  -1.2035   H         1 RES1   0.0000
    49 O3       7.2084   9.5848   7.9117   O.co2     1 RES1   0.0000
    50 O4       8.3573   9.9019   6.0652   O.co2     1 RES1   0.0000
    51 C5       7.6350   9.2241   6.7547   C.2       1 RES1   0.0000
    52 C6       7.1583   7.8964   6.2522   C.2       1 RES1   0.0000
    53 C7       5.9967   7.3158   6.8482   C.2       1 RES1   0.0000
    54 H7       5.4675   7.7783   7.4528   H         1 RES1   0.0000
    55 C8       5.7043   6.0282   6.4625   C.2       1 RES1   0.0000
    56 H8       5.0249   5.5826   6.9166   H         1 RES1   0.0000
    57 O5      -0.9058   6.5466  -1.5192   O.co2     1 RES1   0.0000
    58 O6       0.5006   6.0236  -3.0945   O.co2     1 RES1   0.0000
    59 C9       0.1551   5.9837  -1.8932   C.2       1 RES1   0.0000
    60 C10      1.0968   5.2690  -0.9349   C.2       1 RES1   0.0000
    61 C11      0.8418   5.1174   0.4791   C.2       1 RES1   0.0000
    62 H11      0.0207   5.4448   0.7698   H         1 RES1   0.0000
    63 C12      2.2704   4.6045  -1.3089   C.2       1 RES1   0.0000
    64 H12      2.5153   4.5380  -2.2032   H         1 RES1   0.0000
    65 Bi1     -1.6487   7.5882  -3.3374   Bi        1 RES1   0.0000
    66 O7       0.3432   9.2331  -2.5476   O.2       1 RES1   0.0000
    67 O8      -3.5569   8.8664  -4.6629   O.3       1 RES1   0.0000
    68 H8A     -4.4175   8.9213  -4.3070   H         1 RES1   0.0000
    69 H8B     -3.3746   9.2552  -5.4884   H         1 RES1   0.0000
    70 N1       1.1964  11.1345  -1.8815   N.am      1 RES1   0.0000
    71 C13      0.3234  10.1069  -2.0217   C.2       1 RES1   0.0000
    72 H13     -0.4682  10.2221  -1.5406   H         1 RES1   0.0000
    73 C14      2.4056  11.0370  -2.6762   C.3       1 RES1   0.0000
    74 H14A     2.3499  10.2971  -3.2757   H         1 RES1   0.0000
    75 H14B     2.5263  11.8518  -3.1773   H         1 RES1   0.0000
    76 H14C     3.1643  10.9200  -2.0899   H         1 RES1   0.0000
    77 C15      1.1569  12.3160  -1.0518   C.3       1 RES1   0.0000
    78 H15A     1.8597  12.2785  -0.3977   H         1 RES1   0.0000
    79 H15B     1.2621  13.1004  -1.5915   H         1 RES1   0.0000
    80 H15C     0.3065  12.3578  -0.5948   H         1 RES1   0.0000
    81 Bi1      8.1033  11.6050   8.3490   Bi        1 RES1   0.0000
    82 Bi1     13.8385  -1.6520  -3.3374   Bi        1 RES1   0.0000
    83 O1      -2.6290   9.3271  -1.6828   O.3       1 RES1   0.0000
    84 O2      -3.4519   7.4405  -2.0907   O.3       1 RES1   0.0000
    85 O3      -2.5435   5.5680  -3.7747   O.3       1 RES1   0.0000
    86 O4      -1.3946   5.8851  -5.6211   O.3       1 RES1   0.0000
@<TRIPOS>BOND
     1     1     2    1
     2     1     3    1
     3     1     4    1
     4     1     5    1
     5     1     6    1
     6     1     7    1
     7     1     8    1
     8     1     9    1
     9     2    13   un
    10     3    13   un
    11     4    19   un
    12     5    19   un
    13     6    25   un
    14     7    25   un
    15     8    31    2
    16     9    10    1
    17     9    11    1
    18    12    31   am
    19    12    33    1
    20    12    37    1
    21    13    14    1
    22    14    15    1
    23    14    17    2
    24    15    16    1
    25    15    47    2
    26    17    18    1
    27    17    45    1
    28    19    20    1
    29    20    21    2
    30    20    55    1
    31    21    22    1
    32    21    23    1
    33    23    24    1
    34    23    52    2
    35    25    26    1
    36    26    27    2
    37    26    29    1
    38    27    28    1
    39    27    63    1
    40    29    30    1
    41    29    61    2
    42    31    32    1
    43    33    34    1
    44    33    35    1
    45    33    36    1
    46    37    38    1
    47    37    39    1
    48    37    40    1
    49    41    43   un
    50    41    82    1
    51    42    43   un
    52    42    82    1
    53    43    44    1
    54    44    45    2
    55    44    47    1
    56    45    46    1
    57    47    48    1
    58    49    51   un
    59    49    81    1
    60    50    51   un
    61    50    81    1
    62    51    52    1
    63    52    53    1
    64    53    54    1
    65    53    55    2
    66    55    56    1
    67    57    59   un
    68    57    65    1
    69    58    59   un
    70    58    65    1
    71    59    60    1
    72    60    61    1
    73    60    63    2
    74    61    62    1
    75    63    64    1
    76    65    66    1
    77    65    67    1
    78    65    83    1
    79    65    84    1
    80    65    85    1
    81    65    86    1
    82    66    71    2
    83    67    68    1
    84    67    69    1
    85    70    71   am
    86    70    73    1
    87    70    77    1
    88    71    72    1
    89    73    74    1
    90    73    75    1
    91    73    76    1
    92    77    78    1
    93    77    79    1
    94    77    80    1
@<TRIPOS>SUBSTRUCTURE
     1 RES1        1 GROUP             0 ****  ****    0  
@<TRIPOS>CRYSIN
    9.6290    9.9800   12.3580   72.2600   89.4300   67.8000     2     1
