####################################################################### 
# 
# This file contains crystal structure data downloaded from the 
# Cambridge Structural Database (CSD) hosted by the Cambridge 
# Crystallographic Data Centre (CCDC).
# 
# Full information about CCDC data access policies and citation 
# guidelines are available at http://www.ccdc.cam.ac.uk/access/V1 
# 
# Audit and citation data items may have been added by the CCDC. 
# Please retain this information to preserve the provenance of 
# this file and to allow appropriate attribution of the data. 
# 
#######################################################################
@<TRIPOS>MOLECULE
RETYUO
   224   253     1     0     0
SMALL
USER_CHARGES
****
Generated from the CSD

@<TRIPOS>ATOM
     1 Zn1      7.7027   4.0156  44.5470   Zn        1 RES1   0.0000
     2 Zn2     10.3575   5.9787  44.1364   Zn        1 RES1   2.0000
     3 C1       7.6275   5.7778  42.4263   C.2       1 RES1   0.0000
     4 C2       7.1822   6.3446  41.1175   C.2       1 RES1   0.0000
     5 C3       6.0482   5.7868  40.5438   C.2       1 RES1   0.0000
     6 H3       5.5821   5.0872  40.9405   H         1 RES1   0.0000
     7 C4       7.8771   7.3222  40.5213   C.2       1 RES1   0.0000
     8 H4       8.6238   7.6326  40.9793   H         1 RES1   0.0000
     9 C5       5.6577   6.3410  39.3445   C.2       1 RES1   0.0000
    10 C6       7.5996   7.9716  39.2141   C.2       1 RES1   0.0000
    11 C7       6.3236   7.3545  38.6955   C.2       1 RES1   0.0000
    12 C8       5.6639   7.7474  37.4511   C.2       1 RES1   0.0000
    13 C9       4.4947   7.0101  37.1857   C.2       1 RES1   0.0000
    14 C10      6.0378   8.7286  36.5817   C.2       1 RES1   0.0000
    15 H10      6.8032   9.2326  36.7331   H         1 RES1   0.0000
    16 C11      3.7159   7.2648  36.0624   C.2       1 RES1   0.0000
    17 H11      2.9547   6.7572  35.8870   H         1 RES1   0.0000
    18 C12      5.2404   8.9618  35.4569   C.2       1 RES1   0.0000
    19 H12      5.5045   9.6129  34.8468   H         1 RES1   0.0000
    20 C13      4.0825   8.2694  35.2178   C.2       1 RES1   0.0000
    21 C14      3.1970   8.6192  34.0379   C.2       1 RES1   0.0000
    22 C15      9.3146   9.3815  39.2110   C.3       1 RES1   0.0000
    23 H15A     9.6843  10.1008  38.6893   H         1 RES1   0.0000
    24 H15B     9.1106   9.6954  40.0943   H         1 RES1   0.0000
    25 H15C     9.9536   8.6658  39.2637   H         1 RES1   0.0000
    26 O1       7.0020   4.8450  42.9774   O.co2     1 RES1   0.0000
    27 O2       8.7005   6.3697  42.9169   O.co2     1 RES1   0.0000
    28 O3       2.0537   8.1061  34.0193   O.co2     1 RES1   0.0000
    29 O4       3.6714   9.4013  33.2003   O.co2     1 RES1   0.0000
    30 O5       3.0375   6.0110  39.0596   O.2       1 RES1   0.0000
    31 O6       4.4781   4.4737  37.8486   O.2       1 RES1   0.0000
    32 O7       8.1288   8.9098  38.5899   O.3       1 RES1   0.0000
    33 O8       9.4793   4.4612  45.2798   O.3       1 RES1   0.0000
    34 S1       4.2456   5.7823  38.3850   S.o2      1 RES1   0.0000
    35 O9       6.3765   5.9787  45.2798   O.3       1 RES1   0.0000
    36 Zn1     13.3840   4.6630  44.5470   Zn        1 RES1   0.0000
    37 C1      11.8954   3.7167  42.4263   C.2       1 RES1   0.0000
    38 C2      11.6272   3.0476  41.1175   C.2       1 RES1   0.0000
    39 C3      12.6773   2.3445  40.5438   C.2       1 RES1   0.0000
    40 H3      13.5162   2.2907  40.9405   H         1 RES1   0.0000
    41 C4      10.4331   3.1607  40.5213   C.2       1 RES1   0.0000
    42 H4       9.7910   3.6522  40.9793   H         1 RES1   0.0000
    43 C5      12.3925   1.7292  39.3445   C.2       1 RES1   0.0000
    44 C6      10.0095   2.5956  39.2141   C.2       1 RES1   0.0000
    45 C7      11.1819   1.7992  38.6955   C.2       1 RES1   0.0000
    46 C8      11.1715   1.0314  37.4511   C.2       1 RES1   0.0000
    47 C9      12.3946   0.3875  37.1857   C.2       1 RES1   0.0000
    48 C10     10.1348   0.8646  36.5817   C.2       1 RES1   0.0000
    49 H10      9.3156   1.2754  36.7331   H         1 RES1   0.0000
    50 C11     12.5634  -0.4144  36.0624   C.2       1 RES1   0.0000
    51 H11     13.3836  -0.8198  35.8870   H         1 RES1   0.0000
    52 C12     10.3316   0.0574  35.4569   C.2       1 RES1   0.0000
    53 H12      9.6356  -0.0395  34.8468   H         1 RES1   0.0000
    54 C13     11.5102  -0.5991  35.2178   C.2       1 RES1   0.0000
    55 C14     11.6500  -1.5409  34.0379   C.2       1 RES1   0.0000
    56 C15      7.9310   3.3759  39.2110   C.3       1 RES1   0.0000
    57 H15A     7.1232   3.3364  38.6893   H         1 RES1   0.0000
    58 H15B     7.7611   3.0423  40.0943   H         1 RES1   0.0000
    59 H15C     8.2313   4.2872  39.2637   H         1 RES1   0.0000
    60 O1      13.0160   3.6414  42.9774   O.co2     1 RES1   0.0000
    61 O2      10.8463   4.3499  42.9169   O.co2     1 RES1   0.0000
    62 O3      12.6659  -2.2745  34.0193   O.co2     1 RES1   0.0000
    63 O4      10.7355  -1.5211  33.2003   O.co2     1 RES1   0.0000
    64 O5      13.9885  -0.3749  39.0596   O.2       1 RES1   0.0000
    65 O6      14.5995   1.6413  37.8486   O.2       1 RES1   0.0000
    66 O7       8.9324   2.5849  38.5899   O.3       1 RES1   0.0000
    67 O8      12.1098   5.9787  45.2798   O.3       1 RES1   0.0000
    68 S1      13.5825   0.7857  38.3850   S.o2      1 RES1   0.0000
    69 O9      12.3470   2.5328  45.2798   O.3       1 RES1   0.0000
    70 Zn1      9.9827   9.2594  44.5470   Zn        1 RES1   0.0000
    71 C1      11.5464   8.4434  42.4263   C.2       1 RES1   0.0000
    72 C2      12.2600   8.5456  41.1175   C.2       1 RES1   0.0000
    73 C3      12.3439   9.8066  40.5438   C.2       1 RES1   0.0000
    74 H3      11.9710  10.5600  40.9405   H         1 RES1   0.0000
    75 C4      12.7591   7.4550  40.5213   C.2       1 RES1   0.0000
    76 H4      12.6545   6.6532  40.9793   H         1 RES1   0.0000
    77 C5      13.0191   9.8676  39.3445   C.2       1 RES1   0.0000
    78 C6      13.4603   7.3707  39.2141   C.2       1 RES1   0.0000
    79 C7      13.5638   8.7842  38.6955   C.2       1 RES1   0.0000
    80 C8      14.2339   9.1591  37.4511   C.2       1 RES1   0.0000
    81 C9      14.1801  10.5403  37.1857   C.2       1 RES1   0.0000
    82 C10     14.8967   8.3447  36.5817   C.2       1 RES1   0.0000
    83 H10     14.9506   7.4299  36.7331   H         1 RES1   0.0000
    84 C11     14.7900  11.0874  36.0624   C.2       1 RES1   0.0000
    85 H11     14.7310  12.0005  35.8870   H         1 RES1   0.0000
    86 C12     15.4974   8.9187  35.4569   C.2       1 RES1   0.0000
    87 H12     15.9293   8.3644  34.8468   H         1 RES1   0.0000
    88 C13     15.4767  10.2677  35.2178   C.2       1 RES1   0.0000
    89 C14     16.2223  10.8596  34.0379   C.2       1 RES1   0.0000
    90 C15     13.8238   5.1805  39.2110   C.3       1 RES1   0.0000
    91 H15A    14.2619   4.5006  38.6893   H         1 RES1   0.0000
    92 H15B    14.1977   5.2002  40.0943   H         1 RES1   0.0000
    93 H15C    12.8845   4.9849  39.2637   H         1 RES1   0.0000
    94 O1      11.0514   9.4515  42.9774   O.co2     1 RES1   0.0000
    95 O2      11.5226   7.2182  42.9169   O.co2     1 RES1   0.0000
    96 O3      16.3497  12.1063  34.0193   O.co2     1 RES1   0.0000
    97 O4      16.6625  10.0578  33.2003   O.co2     1 RES1   0.0000
    98 O5      14.0433  12.3018  39.0596   O.2       1 RES1   0.0000
    99 O6      11.9917  11.8229  37.8486   O.2       1 RES1   0.0000
   100 O7      14.0081   6.4433  38.5899   O.3       1 RES1   0.0000
   101 O8       9.4803   7.4980  45.2798   O.3       1 RES1   0.0000
   102 S1      13.2412  11.3699  38.3850   S.o2      1 RES1   0.0000
   103 O9      12.3459   9.4264  45.2798   O.3       1 RES1   0.0000
   104 Zn1      9.9827   2.6992  46.0178   Zn        1 RES1   0.0000
   105 Zn2     10.3554   5.9799  46.4284   Zn        1 RES1   2.0000
   106 C1      11.5464   3.5152  48.1386   C.2       1 RES1   0.0000
   107 C2      12.2600   3.4130  49.4474   C.2       1 RES1   0.0000
   108 C3      12.3439   2.1519  50.0210   C.2       1 RES1   0.0000
   109 H3      11.9710   1.3986  49.6244   H         1 RES1   0.0000
   110 C4      12.7591   4.5036  50.0435   C.2       1 RES1   0.0000
   111 H4      12.6545   5.3054  49.5855   H         1 RES1   0.0000
   112 C5      13.0191   2.0910  51.2204   C.2       1 RES1   0.0000
   113 C6      13.4603   4.5879  51.3508   C.2       1 RES1   0.0000
   114 C7      13.5638   3.1744  51.8693   C.2       1 RES1   0.0000
   115 C8      14.2339   2.7995  53.1137   C.2       1 RES1   0.0000
   116 C9      14.1801   1.4183  53.3792   C.2       1 RES1   0.0000
   117 C10     14.8967   3.6139  53.9831   C.2       1 RES1   0.0000
   118 H10     14.9506   4.5287  53.8317   H         1 RES1   0.0000
   119 C11     14.7900   0.8712  54.5024   C.2       1 RES1   0.0000
   120 H11     14.7310  -0.0419  54.6779   H         1 RES1   0.0000
   121 C12     15.4974   3.0399  55.1079   C.2       1 RES1   0.0000
   122 H12     15.9293   3.5942  55.7181   H         1 RES1   0.0000
   123 C13     15.4767   1.6909  55.3470   C.2       1 RES1   0.0000
   124 C14     16.2223   1.0990  56.5269   C.2       1 RES1   0.0000
   125 C15     13.8238   6.7781  51.3539   C.3       1 RES1   0.0000
   126 H15A    14.2619   7.4580  51.8755   H         1 RES1   0.0000
   127 H15B    14.1977   6.7584  50.4705   H         1 RES1   0.0000
   128 H15C    12.8845   6.9737  51.3011   H         1 RES1   0.0000
   129 O1      11.0514   2.5071  47.5874   O.co2     1 RES1   0.0000
   130 O2      11.5226   4.7404  47.6480   O.co2     1 RES1   0.0000
   131 O3      16.3497  -0.1477  56.5456   O.co2     1 RES1   0.0000
   132 O4      16.6625   1.9008  57.3645   O.co2     1 RES1   0.0000
   133 O5      14.0433  -0.3432  51.5053   O.2       1 RES1   0.0000
   134 O6      11.9917   0.1357  52.7162   O.2       1 RES1   0.0000
   135 O7      14.0081   5.5153  51.9749   O.3       1 RES1   0.0000
   136 S1      13.2412   0.5887  52.1798   S.o2      1 RES1   0.0000
   137 Zn1      7.7027   7.9430  46.0178   Zn        1 RES1   0.0000
   138 C1       7.6275   6.1808  48.1386   C.2       1 RES1   0.0000
   139 C2       7.1822   5.6140  49.4474   C.2       1 RES1   0.0000
   140 C3       6.0482   6.1718  50.0210   C.2       1 RES1   0.0000
   141 H3       5.5821   6.8714  49.6244   H         1 RES1   0.0000
   142 C4       7.8771   4.6363  50.0435   C.2       1 RES1   0.0000
   143 H4       8.6238   4.3260  49.5855   H         1 RES1   0.0000
   144 C5       5.6577   5.6176  51.2204   C.2       1 RES1   0.0000
   145 C6       7.5996   3.9870  51.3508   C.2       1 RES1   0.0000
   146 C7       6.3236   4.6041  51.8693   C.2       1 RES1   0.0000
   147 C8       5.6639   4.2112  53.1137   C.2       1 RES1   0.0000
   148 C9       4.4947   4.9485  53.3792   C.2       1 RES1   0.0000
   149 C10      6.0378   3.2300  53.9831   C.2       1 RES1   0.0000
   150 H10      6.8032   2.7260  53.8317   H         1 RES1   0.0000
   151 C11      3.7159   4.6937  54.5024   C.2       1 RES1   0.0000
   152 H11      2.9547   5.2014  54.6779   H         1 RES1   0.0000
   153 C12      5.2404   2.9968  55.1079   C.2       1 RES1   0.0000
   154 H12      5.5045   2.3457  55.7181   H         1 RES1   0.0000
   155 C13      4.0825   3.6892  55.3470   C.2       1 RES1   0.0000
   156 C14      3.1970   3.3394  56.5269   C.2       1 RES1   0.0000
   157 C15      9.3146   2.5771  51.3539   C.3       1 RES1   0.0000
   158 H15A     9.6843   1.8578  51.8755   H         1 RES1   0.0000
   159 H15B     9.1106   2.2632  50.4705   H         1 RES1   0.0000
   160 H15C     9.9536   3.2928  51.3011   H         1 RES1   0.0000
   161 O1       7.0020   7.1136  47.5874   O.co2     1 RES1   0.0000
   162 O2       8.7005   5.5889  47.6480   O.co2     1 RES1   0.0000
   163 O3       2.0537   3.8525  56.5456   O.co2     1 RES1   0.0000
   164 O4       3.6714   2.5573  57.3645   O.co2     1 RES1   0.0000
   165 O5       3.0375   5.9476  51.5053   O.2       1 RES1   0.0000
   166 O6       4.4781   7.4849  52.7162   O.2       1 RES1   0.0000
   167 O7       8.1288   3.0488  51.9749   O.3       1 RES1   0.0000
   168 S1       4.2456   6.1763  52.1798   S.o2      1 RES1   0.0000
   169 Zn1     13.3840   7.2956  46.0178   Zn        1 RES1   0.0000
   170 C1      11.8954   8.2419  48.1386   C.2       1 RES1   0.0000
   171 C2      11.6272   8.9109  49.4474   C.2       1 RES1   0.0000
   172 C3      12.6773   9.6141  50.0210   C.2       1 RES1   0.0000
   173 H3      13.5162   9.6679  49.6244   H         1 RES1   0.0000
   174 C4      10.4331   8.7979  50.0435   C.2       1 RES1   0.0000
   175 H4       9.7910   8.3064  49.5855   H         1 RES1   0.0000
   176 C5      12.3925  10.2294  51.2204   C.2       1 RES1   0.0000
   177 C6      10.0095   9.3630  51.3508   C.2       1 RES1   0.0000
   178 C7      11.1819  10.1594  51.8693   C.2       1 RES1   0.0000
   179 C8      11.1715  10.9272  53.1137   C.2       1 RES1   0.0000
   180 C9      12.3946  11.5711  53.3792   C.2       1 RES1   0.0000
   181 C10     10.1348  11.0940  53.9831   C.2       1 RES1   0.0000
   182 H10      9.3156  10.6832  53.8317   H         1 RES1   0.0000
   183 C11     12.5634  12.3730  54.5024   C.2       1 RES1   0.0000
   184 H11     13.3836  12.7784  54.6779   H         1 RES1   0.0000
   185 C12     10.3316  11.9012  55.1079   C.2       1 RES1   0.0000
   186 H12      9.6356  11.9981  55.7181   H         1 RES1   0.0000
   187 C13     11.5102  12.5577  55.3470   C.2       1 RES1   0.0000
   188 C14     11.6500  13.4995  56.5269   C.2       1 RES1   0.0000
   189 C15      7.9310   8.5827  51.3539   C.3       1 RES1   0.0000
   190 H15A     7.1232   8.6221  51.8755   H         1 RES1   0.0000
   191 H15B     7.7611   8.9163  50.4705   H         1 RES1   0.0000
   192 H15C     8.2313   7.6714  51.3011   H         1 RES1   0.0000
   193 O1      13.0160   8.3172  47.5874   O.co2     1 RES1   0.0000
   194 O2      10.8463   7.6087  47.6480   O.co2     1 RES1   0.0000
   195 O3      12.6659  14.2331  56.5456   O.co2     1 RES1   0.0000
   196 O4      10.7355  13.4797  57.3645   O.co2     1 RES1   0.0000
   197 O5      13.9885  12.3335  51.5053   O.2       1 RES1   0.0000
   198 O6      14.5995  10.3173  52.7162   O.2       1 RES1   0.0000
   199 O7       8.9324   9.3737  51.9749   O.3       1 RES1   0.0000
   200 S1      13.5825  11.1729  52.1798   S.o2      1 RES1   0.0000
   201 Zn1     13.0102  -4.0156  33.0800   Zn        1 RES1   0.0000
   202 Zn1     17.6854  13.2749  33.0800   Zn        1 RES1   0.0000
   203 Zn1      0.3738   8.6785  33.0800   Zn        1 RES1   0.0000
   204 Zn1      2.6537   1.9637  58.9556   Zn        1 RES1   0.0000
   205 Zn1     17.6854   1.3163  58.9556   Zn        1 RES1   0.0000
   206 Zn1     10.7302  14.6578  58.9556   Zn        1 RES1   0.0000
   207 Zn1     10.7302  -2.6992  31.6092   Zn        1 RES1   0.0000
   208 Zn1      2.6537   9.9949  31.6092   Zn        1 RES1   0.0000
   209 Zn1     17.6854  10.6423  31.6092   Zn        1 RES1   0.0000
   210 Zn1      0.3738   3.2801  57.4849   Zn        1 RES1   0.0000
   211 Zn1     13.0102  15.9742  57.4849   Zn        1 RES1   0.0000
   212 Zn1     17.6854  -1.3163  57.4849   Zn        1 RES1   0.0000
   213 O3       8.3028   9.8318  43.6077   O.3       1 RES1   0.0000
   214 O3       8.0470   2.2745  43.6077   O.3       1 RES1   0.0000
   215 O3      14.7196   5.8316  43.6077   O.3       1 RES1   0.0000
   216 O3      14.7196   6.1270  46.9571   O.3       1 RES1   0.0000
   217 O3       8.3028   2.1268  46.9571   O.3       1 RES1   0.0000
   218 O3       8.0470   9.6841  46.9571   O.3       1 RES1   0.0000
   219 O4       6.6851   8.5366  44.4267   O.3       1 RES1   0.0000
   220 O4       9.9774   1.5211  44.4267   O.3       1 RES1   0.0000
   221 O4      14.4069   7.8801  44.4267   O.3       1 RES1   0.0000
   222 O4      14.4069   4.0785  46.1381   O.3       1 RES1   0.0000
   223 O4       6.6851   3.4220  46.1381   O.3       1 RES1   0.0000
   224 O4       9.9774  10.4375  46.1381   O.3       1 RES1   0.0000
@<TRIPOS>BOND
     1     1    26    1
     2     1    33    1
     3     1    35    1
     4     1   214    1
     5     1   223    1
     6     2    27    1
     7     2    33    1
     8     2    61    1
     9     2    67    1
    10     2    95    1
    11     2   101    1
    12     2   105    1
    13     3     4    1
    14     3    26   un
    15     3    27   un
    16     4     5    1
    17     4     7    2
    18     5     6    1
    19     5     9    2
    20     7     8    1
    21     7    10    1
    22     9    11    1
    23     9    34    1
    24    10    11    2
    25    10    32    1
    26    11    12    1
    27    12    13    1
    28    12    14    2
    29    13    16    2
    30    13    34    1
    31    14    15    1
    32    14    18    1
    33    16    17    1
    34    16    20    1
    35    18    19    1
    36    18    20    2
    37    20    21    1
    38    21    28   un
    39    21    29   un
    40    22    23    1
    41    22    24    1
    42    22    25    1
    43    22    32    1
    44    28   203    1
    45    29   208    1
    46    30    34    2
    47    31    34    2
    48    33   104    1
    49    33   105    1
    50    35   137    1
    51    36    60    1
    52    36    67    1
    53    36    69    1
    54    36   215    1
    55    36   222    1
    56    37    38    1
    57    37    60   un
    58    37    61   un
    59    38    39    1
    60    38    41    2
    61    39    40    1
    62    39    43    2
    63    41    42    1
    64    41    44    1
    65    43    45    1
    66    43    68    1
    67    44    45    2
    68    44    66    1
    69    45    46    1
    70    46    47    1
    71    46    48    2
    72    47    50    2
    73    47    68    1
    74    48    49    1
    75    48    52    1
    76    50    51    1
    77    50    54    1
    78    52    53    1
    79    52    54    2
    80    54    55    1
    81    55    62   un
    82    55    63   un
    83    56    57    1
    84    56    58    1
    85    56    59    1
    86    56    66    1
    87    62   201    1
    88    63   207    1
    89    64    68    2
    90    65    68    2
    91    67   105    1
    92    67   169    1
    93    69   104    1
    94    70    94    1
    95    70   101    1
    96    70   103    1
    97    70   213    1
    98    70   224    1
    99    71    72    1
   100    71    94   un
   101    71    95   un
   102    72    73    1
   103    72    75    2
   104    73    74    1
   105    73    77    2
   106    75    76    1
   107    75    78    1
   108    77    79    1
   109    77   102    1
   110    78    79    2
   111    78   100    1
   112    79    80    1
   113    80    81    1
   114    80    82    2
   115    81    84    2
   116    81   102    1
   117    82    83    1
   118    82    86    1
   119    84    85    1
   120    84    88    1
   121    86    87    1
   122    86    88    2
   123    88    89    1
   124    89    96   un
   125    89    97   un
   126    90    91    1
   127    90    92    1
   128    90    93    1
   129    90   100    1
   130    96   202    1
   131    97   209    1
   132    98   102    2
   133    99   102    2
   134   101   105    1
   135   101   137    1
   136   103   169    1
   137   104   129    1
   138   104   217    1
   139   104   220    1
   140   105   130    1
   141   105   162    1
   142   105   194    1
   143   106   107    1
   144   106   129   un
   145   106   130   un
   146   107   108    1
   147   107   110    2
   148   108   109    1
   149   108   112    2
   150   110   111    1
   151   110   113    1
   152   112   114    1
   153   112   136    1
   154   113   114    2
   155   113   135    1
   156   114   115    1
   157   115   116    1
   158   115   117    2
   159   116   119    2
   160   116   136    1
   161   117   118    1
   162   117   121    1
   163   119   120    1
   164   119   123    1
   165   121   122    1
   166   121   123    2
   167   123   124    1
   168   124   131   un
   169   124   132   un
   170   125   126    1
   171   125   127    1
   172   125   128    1
   173   125   135    1
   174   131   212    1
   175   132   205    1
   176   133   136    2
   177   134   136    2
   178   137   161    1
   179   137   218    1
   180   137   219    1
   181   138   139    1
   182   138   161   un
   183   138   162   un
   184   139   140    1
   185   139   142    2
   186   140   141    1
   187   140   144    2
   188   142   143    1
   189   142   145    1
   190   144   146    1
   191   144   168    1
   192   145   146    2
   193   145   167    1
   194   146   147    1
   195   147   148    1
   196   147   149    2
   197   148   151    2
   198   148   168    1
   199   149   150    1
   200   149   153    1
   201   151   152    1
   202   151   155    1
   203   153   154    1
   204   153   155    2
   205   155   156    1
   206   156   163   un
   207   156   164   un
   208   157   158    1
   209   157   159    1
   210   157   160    1
   211   157   167    1
   212   163   210    1
   213   164   204    1
   214   165   168    2
   215   166   168    2
   216   169   193    1
   217   169   216    1
   218   169   221    1
   219   170   171    1
   220   170   193   un
   221   170   194   un
   222   171   172    1
   223   171   174    2
   224   172   173    1
   225   172   176    2
   226   174   175    1
   227   174   177    1
   228   176   178    1
   229   176   200    1
   230   177   178    2
   231   177   199    1
   232   178   179    1
   233   179   180    1
   234   179   181    2
   235   180   183    2
   236   180   200    1
   237   181   182    1
   238   181   185    1
   239   183   184    1
   240   183   187    1
   241   185   186    1
   242   185   187    2
   243   187   188    1
   244   188   195   un
   245   188   196   un
   246   189   190    1
   247   189   191    1
   248   189   192    1
   249   189   199    1
   250   195   211    1
   251   196   206    1
   252   197   200    2
   253   198   200    2
@<TRIPOS>SUBSTRUCTURE
     1 RES1        1 GROUP             0 ****  ****    0  
@<TRIPOS>CRYSIN
   20.7129   20.7129   77.6270   90.0000   90.0000  120.0000   238     1
