####################################################################### 
# 
# This file contains crystal structure data downloaded from the 
# Cambridge Structural Database (CSD) hosted by the Cambridge 
# Crystallographic Data Centre (CCDC).
# 
# Full information about CCDC data access policies and citation 
# guidelines are available at http://www.ccdc.cam.ac.uk/access/V1 
# 
# Audit and citation data items may have been added by the CCDC. 
# Please retain this information to preserve the provenance of 
# this file and to allow appropriate attribution of the data. 
# 
#######################################################################
@<TRIPOS>MOLECULE
NENBUH
   145   162     6     0     0
SMALL
NO_CHARGES
****
Generated from the CSD

@<TRIPOS>ATOM
     1 Co1      1.4517  21.7402  11.6368   Co.oh     1 RES1   0.0000
     2 Co2      2.9933  21.8183  14.7687   Co.oh     1 RES1   0.0000
     3 O1      10.1018  23.6638  11.3767   O.co2     1 RES1   0.0000
     4 O2       9.6119  21.9010  12.6682   O.co2     1 RES1   0.0000
     5 O3       4.3669  22.3006  13.2615   O.co2     1 RES1   0.0000
     6 O4       3.4746  21.3873  11.4156   O.co2     1 RES1   0.0000
     7 O5       6.4815  23.7817   8.0020   O.3       1 RES1   0.0000
     8 O6       5.0116  19.7841   3.2904   O.co2     1 RES1   0.0000
     9 O7       5.3448  21.7536   2.3076   O.co2     1 RES1   0.0000
    10 O8       1.2565  21.7675  13.6442   O.3       1 RES1   0.0000
    11 H8       0.7053  21.3147  14.0883   H         1 RES1   0.0000
    12 N1       3.3415  19.7662  14.5274   N.2       1 RES1   0.0000
    13 N2       2.9605  17.6152  14.2111   N.pl3     1 RES1   0.0000
    14 N3       1.1198  19.7257  11.1704   N.2       1 RES1   0.0000
    15 N4       1.5404  17.6076  10.7508   N.pl3     1 RES1   0.0000
    16 N5       5.7146  22.9909   4.6204   N.2       1 RES1   0.0000
    17 C1       4.3898  21.9797  12.0516   C.2       1 RES1   0.0000
    18 C2       5.6089  22.3632  11.2795   C.2       1 RES1   0.0000
    19 C3       6.8646  22.3359  11.8692   C.2       1 RES1   0.0000
    20 H3       6.9585  22.0364  12.7659   H         1 RES1   0.0000
    21 C4       7.9782  22.7416  11.1613   C.2       1 RES1   0.0000
    22 C5       9.3450  22.7577  11.7952   C.2       1 RES1   0.0000
    23 C6       7.8519  23.2030   9.8607   C.2       1 RES1   0.0000
    24 H6       8.6131  23.5043   9.3788   H         1 RES1   0.0000
    25 C7       6.5890  23.2170   9.2726   C.2       1 RES1   0.0000
    26 C8       5.4692  22.7900   9.9605   C.2       1 RES1   0.0000
    27 H8A      4.6170  22.7877   9.5406   H         1 RES1   0.0000
    28 C9       6.1343  22.9650   6.9455   C.2       1 RES1   0.0000
    29 C10      5.9871  23.6367   5.7340   C.2       1 RES1   0.0000
    30 H10      6.0860  24.5813   5.7104   H         1 RES1   0.0000
    31 C11      5.5358  21.6557   4.6570   C.2       1 RES1   0.0000
    32 C12      5.6456  20.9548   5.8327   C.2       1 RES1   0.0000
    33 H12      5.5158  20.0138   5.8350   H         1 RES1   0.0000
    34 C13      5.9410  21.6040   6.9984   C.2       1 RES1   0.0000
    35 H13      6.0103  21.1304   7.8190   H         1 RES1   0.0000
    36 C14      5.2721  20.9828   3.3111   C.2       1 RES1   0.0000
    37 C15      2.0386  18.7948  11.1434   C.2       1 RES1   0.0000
    38 H15      2.9490  18.9395  11.3731   H         1 RES1   0.0000
    39 C17      0.1849  17.8025  10.5012   C.2       1 RES1   0.0000
    40 H17     -0.4447  17.1553  10.2056   H         1 RES1   0.0000
    41 C18     -0.0451  19.1021  10.7658   C.2       1 RES1   0.0000
    42 H18     -0.8894  19.5300  10.6864   H         1 RES1   0.0000
    43 C19      2.2598  16.3782  10.6156   C.2       1 RES1   0.0000
    44 C20      3.6300  16.3910  10.3968   C.2       1 RES1   0.0000
    45 H20      4.0876  17.2199  10.3159   H         1 RES1   0.0000
    46 C21      4.3394  15.1966  10.2924   C.2       1 RES1   0.0000
    47 C22      5.8064  15.1966  10.0463   C.2       1 RES1   0.0000
    48 H22B     6.1049  14.2836   9.8528   H         1 RES1   0.0000
    49 C23      1.5626  15.1966  10.7372   C.2       1 RES1   0.0000
    50 H23      0.6272  15.1966  10.8997   H         1 RES1   0.0000
    51 C24     -1.3165  15.1966  13.5706   C.3       1 RES1   0.0000
    52 C25      0.1868  15.1966  13.8295   C.2       1 RES1   0.0000
    53 C26      0.8787  16.3916  13.9196   C.2       1 RES1   0.0000
    54 H26      0.4147  17.2164  13.8351   H         1 RES1   0.0000
    55 C27      2.2489  16.3861  14.1355   C.2       1 RES1   0.0000
    56 C28      2.9589  15.1966  14.2557   C.2       1 RES1   0.0000
    57 H28      3.8965  15.1965  14.4136   H         1 RES1   0.0000
    58 C29      2.4538  18.8106  14.6133   C.2       1 RES1   0.0000
    59 H29      1.5633  18.9365  14.9186   H         1 RES1   0.0000
    60 C30      4.2716  17.8444  13.8452   C.2       1 RES1   0.0000
    61 H30      4.8968  17.2062  13.5226   H         1 RES1   0.0000
    62 C31      4.4829  19.1723  14.0426   C.2       1 RES1   0.0000
    63 H31      5.3004  19.6245  13.8717   H         1 RES1   0.0000
    64 N1       3.3415  10.6269  14.5274   N.2       1 RES1   0.0000
    65 N2       2.9605  12.7779  14.2111   N.pl3     1 RES1   0.0000
    66 C26      0.8787  14.0015  13.9196   C.2       1 RES1   0.0000
    67 H26      0.4147  13.1767  13.8351   H         1 RES1   0.0000
    68 C27      2.2489  14.0070  14.1355   C.2       1 RES1   0.0000
    69 C29      2.4538  11.5825  14.6133   C.2       1 RES1   0.0000
    70 H29      1.5633  11.4566  14.9186   H         1 RES1   0.0000
    71 C30      4.2716  12.5487  13.8452   C.2       1 RES1   0.0000
    72 H30      4.8968  13.1869  13.5226   H         1 RES1   0.0000
    73 C31      4.4829  11.2208  14.0426   C.2       1 RES1   0.0000
    74 H31      5.3004  10.7686  13.8717   H         1 RES1   0.0000
    75 N3       1.1198  10.6674  11.1704   N.2       1 RES1   0.0000
    76 N4       1.5404  12.7855  10.7508   N.pl3     1 RES1   0.0000
    77 C15      2.0386  11.5983  11.1434   C.2       1 RES1   0.0000
    78 H15      2.9490  11.4536  11.3731   H         1 RES1   0.0000
    79 C17      0.1849  12.5906  10.5012   C.2       1 RES1   0.0000
    80 H17     -0.4447  13.2378  10.2056   H         1 RES1   0.0000
    81 C18     -0.0451  11.2910  10.7658   C.2       1 RES1   0.0000
    82 H18     -0.8894  10.8631  10.6864   H         1 RES1   0.0000
    83 C19      2.2598  14.0149  10.6156   C.2       1 RES1   0.0000
    84 C20      3.6300  14.0021  10.3968   C.2       1 RES1   0.0000
    85 H20      4.0876  13.1732  10.3159   H         1 RES1   0.0000
    86 H22B     6.1049  16.1095   9.8528   H         1 RES1   0.0000
    87 Co1     12.9114  21.7402  16.9689   Co.oh     1 RES1   0.0000
    88 Co2     11.3697  21.8183  13.8370   Co.oh     1 RES1   0.0000
    89 O1       4.2612  23.6638  17.2291   O.co2     1 RES1   0.0000
    90 O2       4.7512  21.9010  15.9376   O.co2     1 RES1   0.0000
    91 O3       9.9961  22.3006  15.3443   O.co2     1 RES1   0.0000
    92 O4      10.8885  21.3873  17.1902   O.co2     1 RES1   0.0000
    93 O5       7.8816  23.7817  20.6037   O.3       1 RES1   0.0000
    94 O6       9.3515  19.7841  25.3154   O.co2     1 RES1   0.0000
    95 O7       9.0183  21.7536  26.2981   O.co2     1 RES1   0.0000
    96 O8      13.1066  21.7675  14.9615   O.3       1 RES1   0.0000
    97 H8      13.6578  21.3147  14.5174   H         1 RES1   0.0000
    98 N5       8.6485  22.9909  23.9854   N.2       1 RES1   0.0000
    99 C1       9.9733  21.9797  16.5542   C.2       1 RES1   0.0000
   100 C2       8.7542  22.3632  17.3262   C.2       1 RES1   0.0000
   101 C3       7.4985  22.3359  16.7365   C.2       1 RES1   0.0000
   102 H3       7.4046  22.0364  15.8399   H         1 RES1   0.0000
   103 C4       6.3848  22.7416  17.4445   C.2       1 RES1   0.0000
   104 C5       5.0181  22.7577  16.8106   C.2       1 RES1   0.0000
   105 C6       6.5111  23.2030  18.7451   C.2       1 RES1   0.0000
   106 H6       5.7500  23.5043  19.2270   H         1 RES1   0.0000
   107 C7       7.7740  23.2170  19.3332   C.2       1 RES1   0.0000
   108 C8       8.8939  22.7900  18.6452   C.2       1 RES1   0.0000
   109 H8A      9.7461  22.7877  19.0651   H         1 RES1   0.0000
   110 C9       8.2288  22.9650  21.6603   C.2       1 RES1   0.0000
   111 C10      8.3759  23.6367  22.8717   C.2       1 RES1   0.0000
   112 H10      8.2771  24.5813  22.8954   H         1 RES1   0.0000
   113 C11      8.8272  21.6557  23.9487   C.2       1 RES1   0.0000
   114 C12      8.7175  20.9548  22.7730   C.2       1 RES1   0.0000
   115 H12      8.8473  20.0138  22.7707   H         1 RES1   0.0000
   116 C13      8.4220  21.6040  21.6074   C.2       1 RES1   0.0000
   117 H13      8.3528  21.1304  20.7868   H         1 RES1   0.0000
   118 C14      9.0909  20.9828  25.2946   C.2       1 RES1   0.0000
   119 Co1      1.4517   8.6529  11.6368   Co.oh     1 RES1   0.0000
   120 Co1      5.7298  23.8495   2.6661   Co.oh     1 RES1   0.0000
   121 Co1      2.2080  23.8495  16.9689   Co.oh     1 RES1   0.0000
   122 Co1     12.1551  23.8495  11.6368   Co.oh     1 RES1   0.0000
   123 Co1      8.6333  23.8495  25.9397   Co.oh     1 RES1   0.0000
   124 Co2      6.5152  21.8183   0.4658   Co.oh     1 RES1   0.0000
   125 Co2      7.8479  21.8183  28.1399   Co.oh     1 RES1   0.0000
   126 Co2      2.9933   8.5748  14.7687   Co.oh     1 RES1   0.0000
   127 Co2      0.6663  23.7714  13.8370   Co.oh     1 RES1   0.0000
   128 Co2     13.6967  23.7714  14.7687   Co.oh     1 RES1   0.0000
   129 O1      14.9646  21.9259  17.2291   O.3       1 RES1   0.0000
   130 O1      -0.6016  21.9259  11.3767   O.3       1 RES1   0.0000
   131 O7       1.8229  21.7536  16.6105   O.3       1 RES1   0.0000
   132 O7      12.5402  21.7536  11.9953   O.3       1 RES1   0.0000
   133 O7       1.8368  23.8361  11.9953   O.3       1 RES1   0.0000
   134 O7      12.5263  23.8361  16.6105   O.3       1 RES1   0.0000
   135 O8       2.4032  23.8221  14.9615   O.3       1 RES1   0.0000
   136 O8      11.9599  23.8221  13.6442   O.3       1 RES1   0.0000
   137 N1      11.0216  19.7662  14.0783   N.3       1 RES1   0.0000
   138 N3      13.2433  19.7257  17.4354   N.3       1 RES1   0.0000
   139 N5       1.4669  22.5988   9.6825   N.3       1 RES1   0.0000
   140 N5      12.8962  22.5988  18.9233   N.3       1 RES1   0.0000
   141 H22A?    6.0094  15.7759   9.2830   H         2 RES2   0.0000
   142 H22C?    6.2709  15.5301  10.8426   H         3 RES3   0.0000
   143 H24A?   -1.7823  15.5759  14.3448   H         4 RES4   0.0000
   144 H24B?   -1.6233  14.2772  13.4232   H         5 RES5   0.0000
   145 H24C?   -1.5116  15.7365  12.7757   H         6 RES6   0.0000
@<TRIPOS>BOND
     1     1     6    1
     2     1    10    1
     3     1    14    1
     4     1   130    1
     5     1   133    1
     6     1   139    1
     7     2     5    1
     8     2    10    1
     9     2    12    1
    10     2    90    1
    11     2   131    1
    12     2   135    1
    13     3    22   un
    14     3   122    1
    15     4    22   un
    16     4    88    1
    17     5    17   un
    18     6    17   un
    19     7    25    1
    20     7    28    1
    21     8    36    2
    22     9    36    1
    23     9   120    1
    24     9   124    1
    25    10    11    1
    26    10   127    1
    27    12    58    2
    28    12    62    1
    29    13    55    1
    30    13    58    1
    31    13    60    1
    32    14    37    2
    33    14    41    1
    34    15    37    1
    35    15    39    1
    36    15    43    1
    37    16    29    2
    38    16    31    1
    39    16   120    1
    40    17    18    1
    41    18    19    2
    42    18    26    1
    43    19    20    1
    44    19    21    1
    45    21    22    1
    46    21    23    2
    47    23    24    1
    48    23    25    1
    49    25    26    2
    50    26    27    1
    51    28    29    1
    52    28    34    2
    53    29    30    1
    54    31    32    2
    55    31    36    1
    56    32    33    1
    57    32    34    1
    58    34    35    1
    59    37    38    1
    60    39    40    1
    61    39    41    2
    62    41    42    1
    63    43    44    2
    64    43    49    1
    65    44    45    1
    66    44    46    1
    67    46    47    1
    68    46    84    2
    69    47    48    1
    70    47    86    1
    71    49    50    1
    72    49    83    2
    73    51    52    1
    74    52    53    2
    75    52    66    1
    76    53    54    1
    77    53    55    1
    78    55    56    2
    79    56    57    1
    80    56    68    1
    81    58    59    1
    82    60    61    1
    83    60    62    2
    84    62    63    1
    85    64    69    2
    86    64    73    1
    87    64   126    1
    88    65    68    1
    89    65    69    1
    90    65    71    1
    91    66    67    1
    92    66    68    2
    93    69    70    1
    94    71    72    1
    95    71    73    2
    96    73    74    1
    97    75    77    2
    98    75    81    1
    99    75   119    1
   100    76    77    1
   101    76    79    1
   102    76    83    1
   103    77    78    1
   104    79    80    1
   105    79    81    2
   106    81    82    1
   107    83    84    1
   108    84    85    1
   109    87    92    1
   110    87    96    1
   111    87   129    1
   112    87   134    1
   113    87   138    1
   114    87   140    1
   115    88    91    1
   116    88    96    1
   117    88   132    1
   118    88   136    1
   119    88   137    1
   120    89   104   un
   121    89   121    1
   122    90   104   un
   123    91    99   un
   124    92    99   un
   125    93   107    1
   126    93   110    1
   127    94   118    2
   128    95   118    1
   129    95   123    1
   130    95   125    1
   131    96    97    1
   132    96   128    1
   133    98   111    2
   134    98   113    1
   135    98   123    1
   136    99   100    1
   137   100   101    2
   138   100   108    1
   139   101   102    1
   140   101   103    1
   141   103   104    1
   142   103   105    2
   143   105   106    1
   144   105   107    1
   145   107   108    2
   146   108   109    1
   147   110   111    1
   148   110   116    2
   149   111   112    1
   150   113   114    2
   151   113   118    1
   152   114   115    1
   153   114   116    1
   154   116   117    1
   155   121   131    1
   156   121   135    1
   157   122   132    1
   158   122   136    1
   159   127   133    1
   160   127   135    1
   161   128   134    1
   162   128   136    1
@<TRIPOS>SUBSTRUCTURE
     1 RES1        1 GROUP             0 ****  ****    0  
     2 RES2      141 GROUP             0 ****  ****    0  
     3 RES3      142 GROUP             0 ****  ****    0  
     4 RES4      143 GROUP             0 ****  ****    0  
     5 RES5      144 GROUP             0 ****  ****    0  
     6 RES6      145 GROUP             0 ****  ****    0  
@<TRIPOS>CRYSIN
   21.4068   30.3931   14.7301   90.0000  103.8330   90.0000    12     1
