####################################################################### 
# 
# This file contains crystal structure data downloaded from the 
# Cambridge Structural Database (CSD) hosted by the Cambridge 
# Crystallographic Data Centre (CCDC).
# 
# Full information about CCDC data access policies and citation 
# guidelines are available at http://www.ccdc.cam.ac.uk/access/V1 
# 
# Audit and citation data items may have been added by the CCDC. 
# Please retain this information to preserve the provenance of 
# this file and to allow appropriate attribution of the data. 
# 
#######################################################################
@<TRIPOS>MOLECULE
GIBPEQ
    49    59     1     0     0
SMALL
NO_CHARGES
****
Generated from the CSD

@<TRIPOS>ATOM
     1 Cu1      3.9509   8.4194  20.0141   Cu        1 RES1   0.0000
     2 O1       2.4094   7.7429  20.9815   O.co2     1 RES1   0.0000
     3 O2       3.5353   7.0800  22.7986   O.co2     1 RES1   0.0000
     4 N1      -0.0009   3.6162  32.1623   N.2       1 RES1   0.0000
     5 N3       0.0000   2.3851  31.6847   N.2       1 RES1   0.0000
     6 N2       0.0000   3.7527  29.9465   N.pl3     1 RES1   0.0000
     7 C1       0.0009   7.1121  22.1742   C.2       1 RES1   0.0000
     8 H1       0.0000   7.4599  21.2902   H         1 RES1   0.0000
     9 C4       0.8674   3.8971  27.6513   C.3       1 RES1   0.0000
    10 H4       1.4876   3.2167  27.8892   H         1 RES1   0.0000
    11 C11     -0.9183   5.2759  28.3432   C.3       1 RES1   0.0000
    12 H11     -1.4868   5.6253  29.0194   H         1 RES1   0.0000
    13 C6       2.4863   7.2533  22.1586   C.2       1 RES1   0.0000
    14 C8      -0.0009   4.3353  28.5879   C.3       1 RES1   0.0000
    15 C10      1.2075   6.8681  22.7974   C.2       1 RES1   0.0000
    16 C12      0.0000   2.4526  30.3135   C.2       1 RES1   0.0000
    17 H12      0.0000   1.7096  29.7229   H         1 RES1   0.0000
    18 C13      1.1954   6.3176  24.0504   C.2       1 RES1   0.0000
    19 H13      2.0179   6.1539  24.4941   H         1 RES1   0.0000
    20 C3      -0.9823   5.7173  26.9847   C.3       1 RES1   0.0000
    21 H3      -1.7083   6.2611  26.7047   H         1 RES1   0.0000
    22 C7      -0.0009   5.9950  24.6896   C.2       1 RES1   0.0000
    23 C2       0.0000   5.3609  26.0734   C.3       1 RES1   0.0000
    24 C9       0.8961   4.3738  26.4109   C.3       1 RES1   0.0000
    25 H9       1.5183   4.0416  25.7761   H         1 RES1   0.0000
    26 C5       0.0000   4.3722  31.0814   C.2       1 RES1   0.0000
    27 H5       0.0000   5.3215  31.1312   H         1 RES1   0.0000
    28 O1      -2.4094   7.7429  20.9815   O.co2     1 RES1   0.0000
    29 O2      -3.5353   7.0800  22.7986   O.co2     1 RES1   0.0000
    30 C4      -0.8674   3.8971  27.6513   C.3       1 RES1   0.0000
    31 H4      -1.4876   3.2167  27.8892   H         1 RES1   0.0000
    32 C11      0.9183   5.2759  28.3432   C.3       1 RES1   0.0000
    33 H11      1.4868   5.6253  29.0194   H         1 RES1   0.0000
    34 C6      -2.4863   7.2533  22.1586   C.2       1 RES1   0.0000
    35 C10     -1.2075   6.8681  22.7974   C.2       1 RES1   0.0000
    36 C13     -1.1954   6.3176  24.0504   C.2       1 RES1   0.0000
    37 H13     -2.0179   6.1539  24.4941   H         1 RES1   0.0000
    38 C3       0.9823   5.7173  26.9847   C.3       1 RES1   0.0000
    39 H3       1.7083   6.2611  26.7047   H         1 RES1   0.0000
    40 C9      -0.8961   4.3738  26.4109   C.3       1 RES1   0.0000
    41 H9      -1.5183   4.0416  25.7761   H         1 RES1   0.0000
    42 Cu1     -3.9509   8.4194  20.0141   Cu        1 RES1   0.0000
    43 Cu1      5.3160   7.6313  22.1759   Cu        1 RES1   0.0000
    44 Cu1     -5.3160   7.6313  22.1759   Cu        1 RES1   0.0000
    45 Cu1      0.0000   4.5622  34.0774   Cu        1 RES1   0.0000
    46 O1       3.7661  10.0927  20.9815   O.3       1 RES1   0.0000
    47 O2       4.3638   6.6017  19.3914   O.3       1 RES1   0.0000
    48 O2       5.7316   8.9708  19.3914   O.3       1 RES1   0.0000
    49 N1       3.1322   8.8932  18.0989   N.3       1 RES1   0.0000
@<TRIPOS>BOND
     1     1     2    1
     2     1    46    1
     3     1    47    1
     4     1    48    1
     5     1    49    1
     6     2    13   un
     7     3    13   un
     8     3    43    1
     9     4     5    1
    10     4    26    2
    11     4    45    1
    12     5    16    2
    13     6    14    1
    14     6    16    1
    15     6    26    1
    16     7     8    1
    17     7    15    2
    18     7    35    1
    19     9    10    1
    20     9    14    1
    21     9    24    1
    22     9    30    1
    23     9    32    1
    24    11    12    1
    25    11    14    1
    26    11    20    1
    27    11    30    1
    28    13    15    1
    29    14    30    1
    30    14    32    1
    31    15    18    1
    32    16    17    1
    33    18    19    1
    34    18    22    2
    35    20    21    1
    36    20    23    1
    37    20    40    1
    38    22    23    1
    39    22    36    1
    40    23    24    1
    41    23    38    1
    42    23    40    1
    43    24    25    1
    44    24    38    1
    45    24    40    1
    46    26    27    1
    47    28    34   un
    48    28    42    1
    49    29    34   un
    50    29    44    1
    51    30    31    1
    52    30    40    1
    53    32    33    1
    54    32    38    1
    55    34    35    1
    56    35    36    2
    57    36    37    1
    58    38    39    1
    59    40    41    1
@<TRIPOS>SUBSTRUCTURE
     1 RES1        1 GROUP             0 ****  ****    0  
@<TRIPOS>CRYSIN
   18.5338   18.5338   42.1900   90.0000   90.0000  120.0000   237     1
