####################################################################### 
# 
# This file contains crystal structure data downloaded from the 
# Cambridge Structural Database (CSD) hosted by the Cambridge 
# Crystallographic Data Centre (CCDC).
# 
# Full information about CCDC data access policies and citation 
# guidelines are available at http://www.ccdc.cam.ac.uk/access/V1 
# 
# Audit and citation data items may have been added by the CCDC. 
# Please retain this information to preserve the provenance of 
# this file and to allow appropriate attribution of the data. 
# 
#######################################################################
@<TRIPOS>MOLECULE
JIJGUI
    71    78     2     0     0
SMALL
USER_CHARGES
****
Generated from the CSD

@<TRIPOS>ATOM
     1 C1      17.3202   1.0262  10.2363   C.2       1 RES1   0.0000
     2 C2      18.4320   1.4900   9.3172   C.2       1 RES1   0.0000
     3 C3      18.2116   2.5393   8.4596   C.2       1 RES1   0.0000
     4 H3      17.3835   2.9569   8.3997   H         1 RES1   0.0000
     5 C4      19.2896   2.9443   7.6861   C.2       1 RES1   0.0000
     6 C5      20.5557   2.3945   7.8398   C.2       1 RES1   0.0000
     7 C6      20.7864   1.3295   8.7201   C.2       1 RES1   0.0000
     8 H6      21.6296   0.9492   8.8237   H         1 RES1   0.0000
     9 C7      19.6915   0.8793   9.4256   C.2       1 RES1   0.0000
    10 H7      19.7906   0.1479   9.9920   H         1 RES1   0.0000
    11 C8      20.6722   3.9811   6.2897   C.2       1 RES1   0.0000
    12 C9      21.2067   4.8669   5.2525   C.2       1 RES1   0.0000
    13 C10     22.5332   4.6063   4.8884   C.2       1 RES1   0.0000
    14 H10     22.9927   3.9308   5.3317   H         1 RES1   0.0000
    15 C11     23.1865   5.3116   3.8965   C.2       1 RES1   0.0000
    16 H11     24.0609   5.0968   3.6667   H         1 RES1   0.0000
    17 C12     22.5348   6.3298   3.2573   C.2       1 RES1   0.0000
    18 H12     22.9659   6.8222   2.5971   H         1 RES1   0.0000
    19 C13     21.2281   6.6195   3.6003   C.2       1 RES1   0.0000
    20 H13     20.7964   7.3202   3.1667   H         1 RES1   0.0000
    21 C14     20.5317   5.9077   4.5680   C.2       1 RES1   0.0000
    22 C15     19.0674   6.3348   4.6926   C.2       1 RES1   0.0000
    23 Ho1     16.3206   3.4507  12.1360   Ho        1 RES1   0.0000
    24 N1      19.3978   3.9126   6.7104   N.pl3     1 RES1   0.0000
    25 H1      18.7492   4.3976   6.4175   H         1 RES1   0.0000
    26 N2      21.3906   3.0716   6.9693   N.pl3     1 RES1   1.0000
    27 H2      22.2338   2.9332   6.8787   H         1 RES1   0.0000
    28 O1      17.3869  -0.1368  10.6878   O.co2     1 RES1   0.0000
    29 O2      16.4061   1.8562  10.5049   O.co2     1 RES1   0.0000
    30 O3      18.2179   5.6678   5.3528   O.co2     1 RES1   0.0000
    31 O4      18.7028   7.3318   4.0437   O.co2     1 RES1  -1.0000
    32 C1      15.3210   1.0262  14.0357   C.2       1 RES1   0.0000
    33 C2      14.2091   1.4900  14.9548   C.2       1 RES1   0.0000
    34 C3      14.4295   2.5393  15.8124   C.2       1 RES1   0.0000
    35 H3      15.2576   2.9569  15.8722   H         1 RES1   0.0000
    36 C4      13.3515   2.9443  16.5858   C.2       1 RES1   0.0000
    37 C5      12.0854   2.3945  16.4321   C.2       1 RES1   0.0000
    38 C6      11.8547   1.3295  15.5519   C.2       1 RES1   0.0000
    39 H6      11.0115   0.9492  15.4483   H         1 RES1   0.0000
    40 C7      12.9496   0.8793  14.8463   C.2       1 RES1   0.0000
    41 H7      12.8506   0.1479  14.2800   H         1 RES1   0.0000
    42 C8      11.9689   3.9811  17.9823   C.2       1 RES1   0.0000
    43 C9      11.4344   4.8669  19.0195   C.2       1 RES1   0.0000
    44 C10     10.1079   4.6063  19.3836   C.2       1 RES1   0.0000
    45 H10      9.6484   3.9308  18.9402   H         1 RES1   0.0000
    46 C11      9.4546   5.3116  20.3755   C.2       1 RES1   0.0000
    47 H11      8.5802   5.0968  20.6053   H         1 RES1   0.0000
    48 C12     10.1064   6.3298  21.0147   C.2       1 RES1   0.0000
    49 H12      9.6752   6.8222  21.6749   H         1 RES1   0.0000
    50 C13     11.4130   6.6195  20.6716   C.2       1 RES1   0.0000
    51 H13     11.8447   7.3202  21.1053   H         1 RES1   0.0000
    52 C14     12.1095   5.9077  19.7040   C.2       1 RES1   0.0000
    53 C15     13.5737   6.3348  19.5794   C.2       1 RES1   0.0000
    54 N1      13.2433   3.9126  17.5616   N.pl3     1 RES1   0.0000
    55 H1      13.8919   4.3976  17.8545   H         1 RES1   0.0000
    56 N2      11.2505   3.0716  17.3027   N.pl3     1 RES1   1.0000
    57 H2      10.4073   2.9332  17.3933   H         1 RES1   0.0000
    58 O1      15.2542  -0.1368  13.5842   O.co2     1 RES1   0.0000
    59 O2      16.2350   1.8562  13.7671   O.co2     1 RES1   0.0000
    60 O3      14.4232   5.6678  18.9192   O.co2     1 RES1   0.0000
    61 O4      13.9383   7.3318  20.2282   O.co2     1 RES1   0.0000
    62 Ho1     16.3206  -1.5797  12.1360   Ho        1 RES1   0.0000
    63 Ho1     16.3772   6.6101   4.0453   Ho        1 RES1   0.0000
    64 Ho1     16.2639   6.6101  20.2266   Ho        1 RES1   0.0000
    65 O1      17.3869   4.8936  10.6878   O.3       1 RES1   0.0000
    66 O1      15.2542   4.8936  13.5842   O.3       1 RES1   0.0000
    67 O3      14.4798   4.3930  10.8285   O.3       1 RES1   0.0000
    68 O3      18.1613   4.3930  13.4434   O.3       1 RES1   0.0000
    69 O4      13.9949   2.7290  12.1376   O.3       1 RES1   0.0000
    70 O4      18.6462   2.7290  12.1344   O.3       1 RES1   0.0000
    71 Cl1     24.2860   2.4277   7.3269   Cl        2 RES2  -1.0000
@<TRIPOS>BOND
     1     1     2    1
     2     1    28   un
     3     1    29   un
     4     2     3    2
     5     2     9    1
     6     3     4    1
     7     3     5    1
     8     5     6    2
     9     5    24    1
    10     6     7    1
    11     6    26    1
    12     7     8    1
    13     7     9    2
    14     9    10    1
    15    11    12    1
    16    11    24    1
    17    11    26    2
    18    12    13    2
    19    12    21    1
    20    13    14    1
    21    13    15    1
    22    15    16    1
    23    15    17    2
    24    17    18    1
    25    17    19    1
    26    19    20    1
    27    19    21    2
    28    21    22    1
    29    22    30   un
    30    22    31   un
    31    23    29    1
    32    23    59    1
    33    23    65    1
    34    23    66    1
    35    23    67    1
    36    23    68    1
    37    23    69    1
    38    23    70    1
    39    24    25    1
    40    26    27    1
    41    28    62    1
    42    30    63    1
    43    31    63    1
    44    32    33    1
    45    32    58   un
    46    32    59   un
    47    33    34    2
    48    33    40    1
    49    34    35    1
    50    34    36    1
    51    36    37    2
    52    36    54    1
    53    37    38    1
    54    37    56    1
    55    38    39    1
    56    38    40    2
    57    40    41    1
    58    42    43    1
    59    42    54    1
    60    42    56    2
    61    43    44    2
    62    43    52    1
    63    44    45    1
    64    44    46    1
    65    46    47    1
    66    46    48    2
    67    48    49    1
    68    48    50    1
    69    50    51    1
    70    50    52    2
    71    52    53    1
    72    53    60   un
    73    53    61   un
    74    54    55    1
    75    56    57    1
    76    58    62    1
    77    60    64    1
    78    61    64    1
@<TRIPOS>SUBSTRUCTURE
     1 RES1        1 GROUP             0 ****  ****    0  
     2 RES2       71 GROUP             0 ****  ****    0  
@<TRIPOS>CRYSIN
   32.8110    5.0304   16.1817   90.0000   90.4010   90.0000    15     1
