####################################################################### 
# 
# This file contains crystal structure data downloaded from the 
# Cambridge Structural Database (CSD) hosted by the Cambridge 
# Crystallographic Data Centre (CCDC).
# 
# Full information about CCDC data access policies and citation 
# guidelines are available at http://www.ccdc.cam.ac.uk/access/V1 
# 
# Audit and citation data items may have been added by the CCDC. 
# Please retain this information to preserve the provenance of 
# this file and to allow appropriate attribution of the data. 
# 
#######################################################################
@<TRIPOS>MOLECULE
JIJHAP
    71    78     2     0     0
SMALL
USER_CHARGES
****
Generated from the CSD

@<TRIPOS>ATOM
     1 Cl1     24.3731   2.5348   7.2455   Cl        1 RES1  -1.0000
     2 C1      17.3452   1.0189   9.9721   C.2       2 RES2   0.0000
     3 C2      18.4896   1.5247   9.1252   C.2       2 RES2   0.0000
     4 C3      18.2906   2.6049   8.2894   C.2       2 RES2   0.0000
     5 H3      17.4628   3.0224   8.2211   H         2 RES2   0.0000
     6 C4      19.3759   3.0339   7.5601   C.2       2 RES2   0.0000
     7 C5      20.6435   2.4740   7.7222   C.2       2 RES2   0.0000
     8 C6      20.8594   1.3881   8.5595   C.2       2 RES2   0.0000
     9 H6      21.6987   0.9987   8.6580   H         2 RES2   0.0000
    10 C7      19.7513   0.9234   9.2364   C.2       2 RES2   0.0000
    11 H7      19.8446   0.1812   9.7893   H         2 RES2   0.0000
    12 C8      20.7809   4.0928   6.1984   C.2       2 RES2   0.0000
    13 C9      21.3275   4.9735   5.1735   C.2       2 RES2   0.0000
    14 C10     22.6494   4.6952   4.7970   C.2       2 RES2   0.0000
    15 H10     23.1010   4.0060   5.2276   H         2 RES2   0.0000
    16 C11     23.3109   5.4087   3.8055   C.2       2 RES2   0.0000
    17 H11     24.1780   5.1766   3.5592   H         2 RES2   0.0000
    18 C12     22.6798   6.4505   3.1985   C.2       2 RES2   0.0000
    19 H12     23.1153   6.9459   2.5423   H         2 RES2   0.0000
    20 C13     21.3854   6.7652   3.5640   C.2       2 RES2   0.0000
    21 H13     20.9701   7.4855   3.1477   H         2 RES2   0.0000
    22 C14     20.6804   6.0599   4.5205   C.2       2 RES2   0.0000
    23 C15     19.2377   6.5159   4.6635   C.2       2 RES2   0.0000
    24 Ce1     16.2390   3.5366  11.9169   Ce        2 RES2   0.0000
    25 N1      19.5101   4.0320   6.6099   N.pl3     2 RES2   0.0000
    26 H1      18.8729   4.5363   6.3271   H         2 RES2   0.0000
    27 N2      21.4791   3.1663   6.8721   N.pl3     2 RES2   1.0000
    28 H2      22.3244   3.0250   6.7847   H         2 RES2   0.0000
    29 O1      17.3937  -0.1646  10.3709   O.co2     2 RES2   0.0000
    30 O2      16.4127   1.8228  10.2390   O.co2     2 RES2   0.0000
    31 O3      18.3649   5.8434   5.3086   O.co2     2 RES2   0.0000
    32 O4      18.8924   7.5587   4.0708   O.co2     2 RES2  -1.0000
    33 C1      15.1329   1.0189  13.8618   C.2       2 RES2   0.0000
    34 C2      13.9884   1.5247  14.7086   C.2       2 RES2   0.0000
    35 C3      14.1875   2.6049  15.5444   C.2       2 RES2   0.0000
    36 H3      15.0153   3.0224  15.6127   H         2 RES2   0.0000
    37 C4      13.1022   3.0339  16.2737   C.2       2 RES2   0.0000
    38 C5      11.8345   2.4740  16.1117   C.2       2 RES2   0.0000
    39 C6      11.6187   1.3881  15.2743   C.2       2 RES2   0.0000
    40 H6      10.7794   0.9987  15.1758   H         2 RES2   0.0000
    41 C7      12.7268   0.9234  14.5974   C.2       2 RES2   0.0000
    42 H7      12.6335   0.1812  14.0445   H         2 RES2   0.0000
    43 C8      11.6971   4.0928  17.6354   C.2       2 RES2   0.0000
    44 C9      11.1505   4.9735  18.6603   C.2       2 RES2   0.0000
    45 C10      9.8287   4.6952  19.0369   C.2       2 RES2   0.0000
    46 H10      9.3770   4.0060  18.6063   H         2 RES2   0.0000
    47 C11      9.1671   5.4087  20.0284   C.2       2 RES2   0.0000
    48 H11      8.3000   5.1766  20.2746   H         2 RES2   0.0000
    49 C12      9.7982   6.4505  20.6353   C.2       2 RES2   0.0000
    50 H12      9.3627   6.9459  21.2915   H         2 RES2   0.0000
    51 C13     11.0927   6.7652  20.2699   C.2       2 RES2   0.0000
    52 H13     11.5079   7.4855  20.6862   H         2 RES2   0.0000
    53 C14     11.7976   6.0599  19.3133   C.2       2 RES2   0.0000
    54 C15     13.2403   6.5159  19.1703   C.2       2 RES2   0.0000
    55 N1      12.9679   4.0320  17.2239   N.pl3     2 RES2   0.0000
    56 H1      13.6051   4.5363  17.5067   H         2 RES2   0.0000
    57 N2      10.9989   3.1663  16.9617   N.pl3     2 RES2   1.0000
    58 H2      10.1536   3.0250  17.0491   H         2 RES2   0.0000
    59 O1      15.0843  -0.1646  13.4629   O.co2     2 RES2   0.0000
    60 O2      16.0654   1.8228  13.5948   O.co2     2 RES2   0.0000
    61 O3      14.1131   5.8434  18.5252   O.co2     2 RES2   0.0000
    62 O4      13.5857   7.5587  19.7630   O.co2     2 RES2   0.0000
    63 Ce1     16.2390  -1.6566  11.9169   Ce        2 RES2   0.0000
    64 Ce1     16.4380   6.8498   3.9723   Ce        2 RES2   0.0000
    65 Ce1     16.0400   6.8498  19.8615   Ce        2 RES2   0.0000
    66 O1      17.3937   5.0286  10.3709   O.3       2 RES2   0.0000
    67 O1      15.0843   5.0286  13.4629   O.3       2 RES2   0.0000
    68 O3      14.3121   4.5430  10.5806   O.3       2 RES2   0.0000
    69 O3      18.1659   4.5430  13.2532   O.3       2 RES2   0.0000
    70 O4      13.7847   2.8277  11.8184   O.3       2 RES2   0.0000
    71 O4      18.6934   2.8277  12.0154   O.3       2 RES2   0.0000
@<TRIPOS>BOND
     1     2     3    1
     2     2    29   un
     3     2    30   un
     4     3     4    2
     5     3    10    1
     6     4     5    1
     7     4     6    1
     8     6     7    2
     9     6    25    1
    10     7     8    1
    11     7    27    1
    12     8     9    1
    13     8    10    2
    14    10    11    1
    15    12    13    1
    16    12    25    1
    17    12    27    2
    18    13    14    2
    19    13    22    1
    20    14    15    1
    21    14    16    1
    22    16    17    1
    23    16    18    2
    24    18    19    1
    25    18    20    1
    26    20    21    1
    27    20    22    2
    28    22    23    1
    29    23    31   un
    30    23    32   un
    31    24    30    1
    32    24    60    1
    33    24    66    1
    34    24    67    1
    35    24    68    1
    36    24    69    1
    37    24    70    1
    38    24    71    1
    39    25    26    1
    40    27    28    1
    41    29    63    1
    42    31    64    1
    43    32    64    1
    44    33    34    1
    45    33    59   un
    46    33    60   un
    47    34    35    2
    48    34    41    1
    49    35    36    1
    50    35    37    1
    51    37    38    2
    52    37    55    1
    53    38    39    1
    54    38    57    1
    55    39    40    1
    56    39    41    2
    57    41    42    1
    58    43    44    1
    59    43    55    1
    60    43    57    2
    61    44    45    2
    62    44    53    1
    63    45    46    1
    64    45    47    1
    65    47    48    1
    66    47    49    2
    67    49    50    1
    68    49    51    1
    69    51    52    1
    70    51    53    2
    71    53    54    1
    72    54    61   un
    73    54    62   un
    74    55    56    1
    75    57    58    1
    76    59    63    1
    77    61    65    1
    78    62    65    1
@<TRIPOS>SUBSTRUCTURE
     1 RES1        1 GROUP             0 ****  ****    0  
     2 RES2        2 GROUP             0 ****  ****    0  
@<TRIPOS>CRYSIN
   33.0751    5.1932   15.8942   90.0000   91.4350   90.0000    15     1
