####################################################################### 
# 
# This file contains crystal structure data downloaded from the 
# Cambridge Structural Database (CSD) hosted by the Cambridge 
# Crystallographic Data Centre (CCDC).
# 
# Full information about CCDC data access policies and citation 
# guidelines are available at http://www.ccdc.cam.ac.uk/access/V1 
# 
# Audit and citation data items may have been added by the CCDC. 
# Please retain this information to preserve the provenance of 
# this file and to allow appropriate attribution of the data. 
# 
#######################################################################
@<TRIPOS>MOLECULE
JIJGIW
    71    78     2     0     0
SMALL
USER_CHARGES
****
Generated from the CSD

@<TRIPOS>ATOM
     1 C1      13.4926   6.4581  11.3308   C.2       1 RES1   0.0000
     2 C2      12.0659   6.0152  11.4636   C.2       1 RES1   0.0000
     3 C3      11.3657   6.6950  12.4253   C.2       1 RES1   0.0000
     4 H3      11.7896   7.4016  12.8605   H         1 RES1   0.0000
     5 C4      10.0433   6.3912  12.7917   C.2       1 RES1   0.0000
     6 H4       9.6134   6.8753  13.4574   H         1 RES1   0.0000
     7 C5       9.4054   5.3766  12.1597   C.2       1 RES1   0.0000
     8 H5       8.5254   5.1655  12.3773   H         1 RES1   0.0000
     9 C6      10.0829   4.6608  11.1756   C.2       1 RES1   0.0000
    10 H6       9.6390   3.9614  10.7499   H         1 RES1   0.0000
    11 C7      11.3889   4.9337  10.8027   C.2       1 RES1   0.0000
    12 C8      11.9520   4.0531   9.7642   C.2       1 RES1   0.0000
    13 C9      13.3478   3.0179   8.3897   C.2       1 RES1   0.0000
    14 C10     12.0691   2.4669   8.2345   C.2       1 RES1   0.0000
    15 C11     11.8749   1.3905   7.3880   C.2       1 RES1   0.0000
    16 H11     11.0411   0.9945   7.2904   H         1 RES1   0.0000
    17 C12     12.9761   0.9270   6.6919   C.2       1 RES1   0.0000
    18 H12     12.8753   0.1936   6.1302   H         1 RES1   0.0000
    19 C13     14.2260   1.5193   6.8039   C.2       1 RES1   0.0000
    20 C14     14.4268   2.5699   7.6472   C.2       1 RES1   0.0000
    21 H14     15.2612   2.9721   7.7208   H         1 RES1   0.0000
    22 C15     15.3540   0.9940   5.9238   C.2       1 RES1   0.0000
    23 N1      13.2159   3.9913   9.3466   N.pl3     1 RES1   0.0000
    24 H1      13.8543   4.4913   9.6346   H         1 RES1   0.0000
    25 N2      11.2354   3.1415   9.1001   N.pl3     1 RES1   1.0000
    26 H2      10.3943   3.0030   9.1946   H         1 RES1   0.0000
    27 Nd1     16.4373   3.5127   4.0004   Nd        1 RES1   0.0000
    28 O1      13.8503   7.5072  11.9340   O.co2     1 RES1   0.0000
    29 O2      14.3716   5.7891  10.6747   O.co2     1 RES1  -1.0000
    30 O3      15.2964  -0.1591   5.5078   O.co2     1 RES1   0.0000
    31 O4      16.2875   1.8200   5.6742   O.co2     1 RES1   0.0000
    32 C1      19.3820   6.4581  -3.3299   C.2       1 RES1   0.0000
    33 C2      20.8087   6.0152  -3.4628   C.2       1 RES1   0.0000
    34 C3      21.5089   6.6950  -4.4245   C.2       1 RES1   0.0000
    35 H3      21.0850   7.4016  -4.8597   H         1 RES1   0.0000
    36 C4      22.8313   6.3912  -4.7909   C.2       1 RES1   0.0000
    37 H4      23.2612   6.8753  -5.4566   H         1 RES1   0.0000
    38 C5      23.4692   5.3766  -4.1588   C.2       1 RES1   0.0000
    39 H5      24.3492   5.1654  -4.3765   H         1 RES1   0.0000
    40 C6      22.7917   4.6608  -3.1747   C.2       1 RES1   0.0000
    41 H6      23.2356   3.9614  -2.7491   H         1 RES1   0.0000
    42 C7      21.4857   4.9337  -2.8019   C.2       1 RES1   0.0000
    43 C8      20.9226   4.0531  -1.7634   C.2       1 RES1   0.0000
    44 C9      19.5268   3.0179  -0.3888   C.2       1 RES1   0.0000
    45 C10     20.8055   2.4668  -0.2336   C.2       1 RES1   0.0000
    46 C11     20.9997   1.3905   0.6129   C.2       1 RES1   0.0000
    47 H11     21.8335   0.9945   0.7105   H         1 RES1   0.0000
    48 C12     19.8985   0.9270   1.3089   C.2       1 RES1   0.0000
    49 H12     19.9993   0.1936   1.8706   H         1 RES1   0.0000
    50 C13     18.6486   1.5192   1.1969   C.2       1 RES1   0.0000
    51 C14     18.4478   2.5699   0.3536   C.2       1 RES1   0.0000
    52 H14     17.6134   2.9721   0.2800   H         1 RES1   0.0000
    53 C15     17.5206   0.9940   2.0770   C.2       1 RES1   0.0000
    54 N1      19.6587   3.9913  -1.3457   N.pl3     1 RES1   0.0000
    55 H1      19.0203   4.4913  -1.6338   H         1 RES1   0.0000
    56 N2      21.6392   3.1415  -1.0993   N.pl3     1 RES1   1.0000
    57 H2      22.4803   3.0030  -1.1937   H         1 RES1   0.0000
    58 O1      19.0243   7.5072  -3.9332   O.co2     1 RES1   0.0000
    59 O2      18.5030   5.7891  -2.6739   O.co2     1 RES1   0.0000
    60 O3      17.5782  -0.1591   2.4931   O.co2     1 RES1   0.0000
    61 O4      16.5871   1.8200   2.3266   O.co2     1 RES1   0.0000
    62 Nd1     16.4373  -1.6373   4.0004   Nd        1 RES1   0.0000
    63 Nd1     16.6007   6.7873  -4.0004   Nd        1 RES1   0.0000
    64 Nd1     16.2739   6.7873  12.0012   Nd        1 RES1   0.0000
    65 O1      18.8609   2.7928   4.0676   O.3       1 RES1   0.0000
    66 O1      14.0137   2.7928   3.9332   O.3       1 RES1   0.0000
    67 O2      18.3396   4.5109   5.3270   O.3       1 RES1   0.0000
    68 O2      14.5350   4.5109   2.6739   O.3       1 RES1   0.0000
    69 O3      15.2964   4.9909   5.5078   O.3       1 RES1   0.0000
    70 O3      17.5782   4.9909   2.4931   O.3       1 RES1   0.0000
    71 Cl1      8.3354   2.5106   8.7257   Cl        2 RES2  -1.0000
@<TRIPOS>BOND
     1     1     2    1
     2     1    28   un
     3     1    29   un
     4     2     3    2
     5     2    11    1
     6     3     4    1
     7     3     5    1
     8     5     6    1
     9     5     7    2
    10     7     8    1
    11     7     9    1
    12     9    10    1
    13     9    11    2
    14    11    12    1
    15    12    23    1
    16    12    25    2
    17    13    14    2
    18    13    20    1
    19    13    23    1
    20    14    15    1
    21    14    25    1
    22    15    16    1
    23    15    17    2
    24    17    18    1
    25    17    19    1
    26    19    20    2
    27    19    22    1
    28    20    21    1
    29    22    30   un
    30    22    31   un
    31    23    24    1
    32    25    26    1
    33    27    31    1
    34    27    61    1
    35    27    65    1
    36    27    66    1
    37    27    67    1
    38    27    68    1
    39    27    69    1
    40    27    70    1
    41    28    64    1
    42    29    64    1
    43    30    62    1
    44    32    33    1
    45    32    58   un
    46    32    59   un
    47    33    34    2
    48    33    42    1
    49    34    35    1
    50    34    36    1
    51    36    37    1
    52    36    38    2
    53    38    39    1
    54    38    40    1
    55    40    41    1
    56    40    42    2
    57    42    43    1
    58    43    54    1
    59    43    56    2
    60    44    45    2
    61    44    51    1
    62    44    54    1
    63    45    46    1
    64    45    56    1
    65    46    47    1
    66    46    48    2
    67    48    49    1
    68    48    50    1
    69    50    51    2
    70    50    53    1
    71    51    52    1
    72    53    60   un
    73    53    61   un
    74    54    55    1
    75    56    57    1
    76    58    63    1
    77    59    63    1
    78    60    62    1
@<TRIPOS>SUBSTRUCTURE
     1 RES1        1 GROUP             0 ****  ****    0  
     2 RES2       71 GROUP             0 ****  ****    0  
@<TRIPOS>CRYSIN
   33.0380    5.1500   16.0050   90.0000   91.1700   90.0000    15     1
