####################################################################### 
# 
# This file contains crystal structure data downloaded from the 
# Cambridge Structural Database (CSD) hosted by the Cambridge 
# Crystallographic Data Centre (CCDC).
# 
# Full information about CCDC data access policies and citation 
# guidelines are available at http://www.ccdc.cam.ac.uk/access/V1 
# 
# Audit and citation data items may have been added by the CCDC. 
# Please retain this information to preserve the provenance of 
# this file and to allow appropriate attribution of the data. 
# 
#######################################################################
@<TRIPOS>MOLECULE
JIJGOC
    72    78     3     0     0
SMALL
USER_CHARGES
****
Generated from the CSD

@<TRIPOS>ATOM
     1 C1      15.3256   1.0061   5.9154   C.2       1 RES1   0.0000
     2 C2      14.1670   1.5132   6.7798   C.2       1 RES1   0.0000
     3 C3      12.9254   0.9184   6.6554   C.2       1 RES1   0.0000
     4 H3      12.8329   0.1893   6.0845   H         1 RES1   0.0000
     5 C4      11.8101   1.3775   7.3572   C.2       1 RES1   0.0000
     6 H4      10.9736   0.9813   7.2727   H         1 RES1   0.0000
     7 C5      12.0383   2.4785   8.1993   C.2       1 RES1   0.0000
     8 C6      13.3153   3.0177   8.3620   C.2       1 RES1   0.0000
     9 C7      14.3852   2.5900   7.6251   C.2       1 RES1   0.0000
    10 H7      15.2189   3.0006   7.6873   H         1 RES1   0.0000
    11 C8      11.8943   4.0733   9.7288   C.2       1 RES1   0.0000
    12 C9      11.3588   4.9684  10.7654   C.2       1 RES1   0.0000
    13 C10     10.0202   4.6898  11.1307   C.2       1 RES1   0.0000
    14 H10      9.5686   4.0170  10.6729   H         1 RES1   0.0000
    15 C11      9.3570   5.3605  12.1243   C.2       1 RES1   0.0000
    16 H11      8.4963   5.1139  12.3763   H         1 RES1   0.0000
    17 C12      9.9997   6.4182  12.7415   C.2       1 RES1   0.0000
    18 H12      9.5623   6.9207  13.3906   H         1 RES1   0.0000
    19 C13     11.3119   6.7226  12.3795   C.2       1 RES1   0.0000
    20 H13     11.7377   7.4294  12.8101   H         1 RES1   0.0000
    21 C14     12.0139   6.0312  11.4209   C.2       1 RES1   0.0000
    22 C15     13.4561   6.4749  11.2902   C.2       1 RES1   0.0000
    23 Eu1     16.4130   3.5182   3.9872   Eu        1 RES1   0.0000
    24 N1      13.1780   4.0052   9.3125   N.pl3     1 RES1   0.0000
    25 H1      13.8183   4.5051   9.6012   H         1 RES1   0.0000
    26 N2      11.2032   3.1394   9.0621   N.pl3     1 RES1   1.0000
    27 H2      10.3658   2.9785   9.1610   H         1 RES1   0.0000
    28 O1      15.2753  -0.1496   5.5199   O.co2     1 RES1   0.0000
    29 O2      16.2491   1.8321   5.6634   O.co2     1 RES1   0.0000
    30 O3      14.3261   5.8016  10.6315   O.co2     1 RES1   0.0000
    31 O4      13.7991   7.5357  11.8755   O.co2     1 RES1  -1.0000
    32 C1      17.5003   1.0061   2.0590   C.2       1 RES1   0.0000
    33 C2      18.6590   1.5132   1.1946   C.2       1 RES1   0.0000
    34 C3      19.9006   0.9184   1.3190   C.2       1 RES1   0.0000
    35 H3      19.9931   0.1893   1.8899   H         1 RES1   0.0000
    36 C4      21.0159   1.3775   0.6172   C.2       1 RES1   0.0000
    37 H4      21.8524   0.9813   0.7017   H         1 RES1   0.0000
    38 C5      20.7876   2.4785  -0.2249   C.2       1 RES1   0.0000
    39 C6      19.5106   3.0177  -0.3876   C.2       1 RES1   0.0000
    40 C7      18.4407   2.5900   0.3493   C.2       1 RES1   0.0000
    41 H7      17.6070   3.0006   0.2871   H         1 RES1   0.0000
    42 C8      20.9317   4.0733  -1.7544   C.2       1 RES1   0.0000
    43 C9      21.4671   4.9684  -2.7910   C.2       1 RES1   0.0000
    44 C10     22.8058   4.6898  -3.1563   C.2       1 RES1   0.0000
    45 H10     23.2574   4.0170  -2.6985   H         1 RES1   0.0000
    46 C11     23.4689   5.3605  -4.1499   C.2       1 RES1   0.0000
    47 H11     24.3297   5.1139  -4.4019   H         1 RES1   0.0000
    48 C12     22.8262   6.4182  -4.7671   C.2       1 RES1   0.0000
    49 H12     23.2636   6.9207  -5.4162   H         1 RES1   0.0000
    50 C13     21.5141   6.7226  -4.4051   C.2       1 RES1   0.0000
    51 H13     21.0882   7.4294  -4.8357   H         1 RES1   0.0000
    52 C14     20.8121   6.0312  -3.4465   C.2       1 RES1   0.0000
    53 C15     19.3699   6.4749  -3.3158   C.2       1 RES1   0.0000
    54 N1      19.6480   4.0052  -1.3381   N.pl3     1 RES1   0.0000
    55 H1      19.0076   4.5051  -1.6268   H         1 RES1   0.0000
    56 N2      21.6228   3.1394  -1.0877   N.pl3     1 RES1   1.0000
    57 H2      22.4602   2.9785  -1.1866   H         1 RES1   0.0000
    58 O1      17.5507  -0.1496   2.4545   O.co2     1 RES1   0.0000
    59 O2      16.5769   1.8321   2.3110   O.co2     1 RES1   0.0000
    60 O3      18.4998   5.8016  -2.6571   O.co2     1 RES1   0.0000
    61 O4      19.0268   7.5357  -3.9011   O.co2     1 RES1   0.0000
    62 Eu1     16.4130  -1.6411   3.9872   Eu        1 RES1   0.0000
    63 Eu1     16.5960   6.8004  -3.9872   Eu        1 RES1   0.0000
    64 Eu1     16.2299   6.8004  11.9616   Eu        1 RES1   0.0000
    65 O1      15.2753   5.0097   5.5199   O.3       1 RES1   0.0000
    66 O1      17.5507   5.0097   2.4545   O.3       1 RES1   0.0000
    67 O3      18.3168   4.5170   5.3173   O.3       1 RES1   0.0000
    68 O3      14.5092   4.5170   2.6571   O.3       1 RES1   0.0000
    69 O4      18.8438   2.7829   4.0733   O.3       1 RES1   0.0000
    70 O4      13.9822   2.7829   3.9011   O.3       1 RES1   0.0000
    71 Cl1      8.3072   2.5219   8.6777   Cl        2 RES2  -1.0000
    72 O5?     16.4130   1.6309   3.9872   O.3       3 RES3   0.0000
@<TRIPOS>BOND
     1     1     2    1
     2     1    28   un
     3     1    29   un
     4     2     3    2
     5     2     9    1
     6     3     4    1
     7     3     5    1
     8     5     6    1
     9     5     7    2
    10     7     8    1
    11     7    26    1
    12     8     9    2
    13     8    24    1
    14     9    10    1
    15    11    12    1
    16    11    24    1
    17    11    26    2
    18    12    13    2
    19    12    21    1
    20    13    14    1
    21    13    15    1
    22    15    16    1
    23    15    17    2
    24    17    18    1
    25    17    19    1
    26    19    20    1
    27    19    21    2
    28    21    22    1
    29    22    30   un
    30    22    31   un
    31    23    29    1
    32    23    59    1
    33    23    65    1
    34    23    66    1
    35    23    67    1
    36    23    68    1
    37    23    69    1
    38    23    70    1
    39    24    25    1
    40    26    27    1
    41    28    62    1
    42    30    64    1
    43    31    64    1
    44    32    33    1
    45    32    58   un
    46    32    59   un
    47    33    34    2
    48    33    40    1
    49    34    35    1
    50    34    36    1
    51    36    37    1
    52    36    38    2
    53    38    39    1
    54    38    56    1
    55    39    40    2
    56    39    54    1
    57    40    41    1
    58    42    43    1
    59    42    54    1
    60    42    56    2
    61    43    44    2
    62    43    52    1
    63    44    45    1
    64    44    46    1
    65    46    47    1
    66    46    48    2
    67    48    49    1
    68    48    50    1
    69    50    51    1
    70    50    52    2
    71    52    53    1
    72    53    60   un
    73    53    61   un
    74    54    55    1
    75    56    57    1
    76    58    62    1
    77    60    63    1
    78    61    63    1
@<TRIPOS>SUBSTRUCTURE
     1 RES1        1 GROUP             0 ****  ****    0  
     2 RES2       71 GROUP             0 ****  ****    0  
     3 RES3       72 GROUP             0 ****  ****    0  
@<TRIPOS>CRYSIN
   33.0090    5.1593   15.9530   90.0000   91.3150   90.0000    15     1
