####################################################################### 
# 
# This file contains crystal structure data downloaded from the 
# Cambridge Structural Database (CSD) hosted by the Cambridge 
# Crystallographic Data Centre (CCDC).
# 
# Full information about CCDC data access policies and citation 
# guidelines are available at http://www.ccdc.cam.ac.uk/access/V1 
# 
# Audit and citation data items may have been added by the CCDC. 
# Please retain this information to preserve the provenance of 
# this file and to allow appropriate attribution of the data. 
# 
#######################################################################
@<TRIPOS>MOLECULE
JIJGES
    72    78     3     0     0
SMALL
USER_CHARGES
****
Generated from the CSD

@<TRIPOS>ATOM
     1 Pr1     16.5055  -1.6075   4.0517   Pr        1 RES1   1.0000
     2 O1      18.7624  -2.3373   4.0549   O.3       1 RES1   0.0000
     3 O2      18.2555  -0.6430   5.3321   O.3       1 RES1   0.0000
     4 O1      14.0168  -2.3373   3.9778   O.3       1 RES1   0.0000
     5 O2      14.5237  -0.6430   2.7006   O.3       1 RES1   0.0000
     6 O3      16.2739  -3.2336   5.6743   O.co2     1 RES1   0.0000
     7 O3      16.5053  -3.2336   2.3584   O.co2     1 RES1   0.0000
     8 O4      15.2958  -0.1485   5.5008   O.3       1 RES1   0.0000
     9 O4      17.4834  -0.1485   2.5319   O.3       1 RES1   0.0000
    10 C15     15.3522  -4.0724   5.9217   C.2       1 RES1   0.0000
    11 C15     17.4269  -4.0724   2.1110   C.2       1 RES1   0.0000
    12 O4      15.2958  -5.2352   5.5008   O.co2     1 RES1   0.0000
    13 C12     14.2307  -3.5785   6.8229   C.2       1 RES1   0.0000
    14 O4      17.4834  -5.2352   2.5319   O.co2     1 RES1   0.0000
    15 C12     18.5485  -3.5785   1.2097   C.2       1 RES1   0.0000
    16 Pr1     16.5055  -6.6942   4.0517   Pr        1 RES1   1.0000
    17 C13     12.9657  -4.1813   6.7185   C.2       1 RES1   0.0000
    18 C11     14.4289  -2.5235   7.6744   C.2       1 RES1   0.0000
    19 C13     19.8134  -4.1813   1.3141   C.2       1 RES1   0.0000
    20 C11     18.3502  -2.5235   0.3583   C.2       1 RES1   0.0000
    21 H13     12.8718  -4.9168   6.1578   H         1 RES1   0.0000
    22 C14     11.8670  -3.7336   7.4093   C.2       1 RES1   0.0000
    23 C10     13.3522  -2.1283   8.4359   C.2       1 RES1   0.0000
    24 H11     15.2537  -2.0957   7.7355   H         1 RES1   0.0000
    25 H13     19.9073  -4.9168   1.8748   H         1 RES1   0.0000
    26 C14     20.9122  -3.7336   0.6233   C.2       1 RES1   0.0000
    27 C10     19.4270  -2.1283  -0.4032   C.2       1 RES1   0.0000
    28 H11     17.5255  -2.0957   0.2972   H         1 RES1   0.0000
    29 C9      12.0947  -2.6588   8.2720   C.2       1 RES1   0.0000
    30 H14     11.0263  -4.1182   7.3081   H         1 RES1   0.0000
    31 N2      13.2298  -1.1308   9.3966   N.pl3     1 RES1   0.0000
    32 C9      20.6845  -2.6588  -0.2394   C.2       1 RES1   0.0000
    33 H14     21.7529  -4.1182   0.7245   H         1 RES1   0.0000
    34 N2      19.5494  -1.1308  -1.3639   N.pl3     1 RES1   0.0000
    35 N1      11.2532  -1.9935   9.1396   N.pl3     1 RES1   0.0000
    36 C8      11.9771  -1.0580   9.8111   C.2       1 RES1   0.0000
    37 H2      13.8737  -0.6358   9.6810   H         1 RES1   0.0000
    38 N1      21.5260  -1.9935  -1.1069   N.pl3     1 RES1   0.0000
    39 C8      20.8021  -1.0580  -1.7784   C.2       1 RES1   0.0000
    40 H2      18.9055  -0.6358  -1.6483   H         1 RES1   0.0000
    41 H1      10.4129  -2.1446   9.2392   H         1 RES1   0.0000
    42 C7      11.4293  -0.1857  10.8393   C.2       1 RES1   0.0000
    43 H1      22.3663  -2.1446  -1.2065   H         1 RES1   0.0000
    44 C7      21.3498  -0.1857  -2.8066   C.2       1 RES1   0.0000
    45 C2      12.0939   0.8597  11.5156   C.2       1 RES1   0.0000
    46 C6      10.1015  -0.4578  11.2152   C.2       1 RES1   0.0000
    47 C2      20.6852   0.8597  -3.4830   C.2       1 RES1   0.0000
    48 C6      22.6776  -0.4578  -3.1825   C.2       1 RES1   0.0000
    49 C1      13.5334   1.2910  11.3823   C.2       1 RES1   0.0000
    50 C3      11.3991   1.5820  12.4795   C.2       1 RES1   0.0000
    51 C5       9.4359   0.2442  12.2113   C.2       1 RES1   0.0000
    52 H6       9.6473  -1.1435  10.7782   H         1 RES1   0.0000
    53 C1      19.2458   1.2910  -3.3496   C.2       1 RES1   0.0000
    54 C3      21.3801   1.5820  -4.4469   C.2       1 RES1   0.0000
    55 C5      23.3433   0.2442  -4.1786   C.2       1 RES1   0.0000
    56 H6      23.1319  -1.1435  -2.7456   H         1 RES1   0.0000
    57 O1      13.9010   2.3373  12.0104   O.co2     1 RES1   0.0000
    58 O2      14.4079   0.6430  10.7332   O.co2     1 RES1   0.0000
    59 C4      10.0978   1.2717  12.8410   C.2       1 RES1   0.0000
    60 H3      11.8208   2.2992  12.8956   H         1 RES1   0.0000
    61 H5       8.5608   0.0270  12.4458   H         1 RES1   0.0000
    62 O1      18.8782   2.3373  -3.9778   O.co2     1 RES1   0.0000
    63 O2      18.3713   0.6430  -2.7006   O.co2     1 RES1   0.0000
    64 C4      22.6813   1.2717  -4.8084   C.2       1 RES1   0.0000
    65 H3      20.9584   2.2992  -4.8630   H         1 RES1   0.0000
    66 H5      24.2184   0.0270  -4.4131   H         1 RES1   0.0000
    67 Pr1     16.1578   1.6075  12.0137   Pr        1 RES1   1.0000
    68 H4       9.6704   1.7615  13.5093   H         1 RES1   0.0000
    69 Pr1     16.6213   1.6075  -3.9810   Pr        1 RES1   1.0000
    70 H4      23.1087   1.7615  -5.4767   H         1 RES1   0.0000
    71 Cl1     24.3039   2.6105   7.2937   Cl        2 RES2  -1.0000
    72 O5?     16.2738   3.5149  12.0490   O.3       3 RES3   0.0000
@<TRIPOS>BOND
     1     2     1    1
     2     3     1    1
     3     1     4    1
     4     1     5    1
     5     1     6    1
     6     1     7    1
     7     1     8    1
     8     1     9    1
     9    23    31    1
    10    59    68    1
    11    35    41    1
    12    12    16    1
    13    49    45    1
    14    50    59    1
    15    58    67    1
    16    17    21    1
    17    23    18    1
    18    36    35    1
    19    49    58   un
    20    29    22    1
    21    49    57   un
    22    45    50    2
    23    51    61    1
    24    23    29    2
    25    10    12   un
    26    42    46    2
    27    36    31    2
    28    46    51    1
    29    50    60    1
    30    57    67    1
    31    10     6   un
    32    29    35    1
    33    13    10    1
    34    31    37    1
    35    18    24    1
    36    22    30    1
    37    46    52    1
    38    17    22    2
    39    36    42    1
    40    13    18    2
    41    13    17    1
    42    42    45    1
    43    51    59    2
    44    27    34    1
    45    64    70    1
    46    38    43    1
    47    53    47    1
    48    54    64    1
    49    63    69    1
    50    19    25    1
    51    27    20    1
    52    39    38    1
    53    53    63   un
    54    14    16    1
    55    32    26    1
    56    53    62   un
    57    47    54    2
    58    55    66    1
    59    27    32    2
    60    11    14   un
    61    44    48    2
    62    39    34    2
    63    48    55    1
    64    54    65    1
    65    62    69    1
    66    11     7   un
    67    32    38    1
    68    15    11    1
    69    34    40    1
    70    20    28    1
    71    26    33    1
    72    48    56    1
    73    19    26    2
    74    39    44    1
    75    15    20    2
    76    15    19    1
    77    44    47    1
    78    55    64    2
@<TRIPOS>SUBSTRUCTURE
     1 RES1        1 GROUP             0 ****  ****    0  
     2 RES2       71 GROUP             0 ****  ****    0  
     3 RES3       72 GROUP             0 ****  ****    0  
@<TRIPOS>CRYSIN
   32.8950    5.0867   16.0670   90.0000   90.8260   90.0000    15     1
