####################################################################### 
# 
# This file contains crystal structure data downloaded from the 
# Cambridge Structural Database (CSD) hosted by the Cambridge 
# Crystallographic Data Centre (CCDC).
# 
# Full information about CCDC data access policies and citation 
# guidelines are available at http://www.ccdc.cam.ac.uk/access/V1 
# 
# Audit and citation data items may have been added by the CCDC. 
# Please retain this information to preserve the provenance of 
# this file and to allow appropriate attribution of the data. 
# 
#######################################################################
@<TRIPOS>MOLECULE
TOXYIS
    61    67     1     0     0
SMALL
NO_CHARGES
****
Generated from the CSD

@<TRIPOS>ATOM
     1 Cd1     13.1145   3.7598   7.8906   Cd        1 RES1   0.0000
     2 O1      13.6380   6.3176   7.5532   O.co2     1 RES1   0.0000
     3 O2      11.7716   5.3313   6.9818   O.co2     1 RES1   0.0000
     4 O4      12.1041  12.3877   6.5309   O.co2     1 RES1   0.0000
     5 O3      13.0306  11.4014   8.2421   O.co2     1 RES1   0.0000
     6 O7      14.6108   3.8377   9.6116   O.2       1 RES1   0.0000
     7 O5      11.5258   3.9787   9.5808   O.2       1 RES1   0.0000
     8 C1      12.4451   6.3511   7.0925   C.2       1 RES1   0.0000
     9 C4      11.8092  10.0386   6.7046   C.2       1 RES1   0.0000
    10 N1       9.0798   8.8230   4.5873   N.pl3     1 RES1   0.0000
    11 H1       8.6823   8.0701   4.4641   H         1 RES1   0.0000
    12 C2      11.8326   7.6561   6.6976   C.2       1 RES1   0.0000
    13 C8      10.7404   7.6622   5.8532   C.2       1 RES1   0.0000
    14 H8      10.3708   6.8534   5.5829   H         1 RES1   0.0000
    15 C6      10.7331  10.0549   5.8392   C.2       1 RES1   0.0000
    16 H6      10.3796  10.8656   5.5535   H         1 RES1   0.0000
    17 C3      12.3825   8.8534   7.1317   C.2       1 RES1   0.0000
    18 H3      13.1190   8.8605   7.6974   H         1 RES1   0.0000
    19 C5      12.3459  11.3628   7.1877   C.2       1 RES1   0.0000
    20 C23      6.0725   9.8265   3.6281   C.2       1 RES1   0.0000
    21 C7      10.1784   8.8565   5.3939   C.2       1 RES1   0.0000
    22 C10      7.3429   9.6368   3.1170   C.2       1 RES1   0.0000
    23 N2      11.8128   2.0924  10.7794   N.am      1 RES1   0.0000
    24 H2A     12.1446   1.6621  10.1129   H         1 RES1   0.0000
    25 H2B     11.7263   1.7037  11.5412   H         1 RES1   0.0000
    26 C9       8.5490  10.0041   3.9264   C.3       1 RES1   0.0000
    27 H9A      9.2280  10.3867   3.3481   H         1 RES1   0.0000
    28 H9B      8.3066  10.6688   4.5901   H         1 RES1   0.0000
    29 N3      15.0450   1.7676  10.2557   N.am      1 RES1   0.0000
    30 H3A     14.6186   1.3983   9.6074   H         1 RES1   0.0000
    31 H3B     15.4362   1.2806  10.8466   H         1 RES1   0.0000
    32 C18      4.9388   9.4075   2.8944   C.2       1 RES1   0.0000
    33 C16      6.3474   8.6931   1.0852   C.2       1 RES1   0.0000
    34 C11      7.5022   9.0787   1.8414   C.2       1 RES1   0.0000
    35 C22      5.7893  10.3887   4.9178   C.2       1 RES1   0.0000
    36 H22      6.4930  10.6931   5.4457   H         1 RES1   0.0000
    37 C25     15.0939   2.9914  10.3383   C.2       1 RES1   0.0000
    38 H25     15.5722   3.3202  11.0651   H         1 RES1   0.0000
    39 C17      5.1028   8.8697   1.6355   C.2       1 RES1   0.0000
    40 H17      4.3512   8.6211   1.1468   H         1 RES1   0.0000
    41 C12      8.7917   8.9133   1.2505   C.2       1 RES1   0.0000
    42 H12      9.5474   9.1599   1.7308   H         1 RES1   0.0000
    43 C24     11.4373   3.3486  10.6324   C.2       1 RES1   0.0000
    44 H24     11.0832   3.7859  11.3731   H         1 RES1   0.0000
    45 C15      6.5943   8.1299  -0.2422   C.2       1 RES1   0.0000
    46 H15      5.8857   7.8428  -0.7702   H         1 RES1   0.0000
    47 C14      7.8076   8.0356  -0.6721   C.2       1 RES1   0.0000
    48 H14      7.9199   7.6824  -1.5249   H         1 RES1   0.0000
    49 C19      3.6150   9.5272   3.4083   C.2       1 RES1   0.0000
    50 H19      2.8841   9.2644   2.8944   H         1 RES1   0.0000
    51 C20      3.4375  10.0102   4.6083   C.2       1 RES1   0.0000
    52 H20      2.5750  10.0396   4.9570   H         1 RES1   0.0000
    53 C13      8.9381   8.3978  -0.0098   C.2       1 RES1   0.0000
    54 H13      9.7780   8.3004  -0.3977   H         1 RES1   0.0000
    55 C21      4.5040  10.4871   5.3911   C.2       1 RES1   0.0000
    56 H21      4.3402  10.8666   6.2243   H         1 RES1   0.0000
    57 Cd1     13.1145  13.9070   7.8906   Cd        1 RES1   0.0000
    58 Cd1     15.4675   6.3874   6.1123   Cd        1 RES1   0.0000
    59 O1      14.9440   3.8296   6.4497   O.3       1 RES1   0.0000
    60 O4      12.1041   2.2405   6.5309   O.3       1 RES1   0.0000
    61 O3      13.0306   1.2542   8.2421   O.3       1 RES1   0.0000
@<TRIPOS>BOND
     1     1     2    1
     2     1     3    1
     3     1     6    1
     4     1     7    1
     5     1    59    1
     6     1    60    1
     7     1    61    1
     8     2     8   un
     9     2    58    1
    10     3     8   un
    11     4    19   un
    12     4    57    1
    13     5    19   un
    14     5    57    1
    15     6    37    2
    16     7    43    2
    17     8    12    1
    18     9    15    1
    19     9    17    2
    20     9    19    1
    21    10    11    1
    22    10    21    1
    23    10    26    1
    24    12    13    2
    25    12    17    1
    26    13    14    1
    27    13    21    1
    28    15    16    1
    29    15    21    2
    30    17    18    1
    31    20    22    1
    32    20    32    2
    33    20    35    1
    34    22    26    1
    35    22    34    2
    36    23    24    1
    37    23    25    1
    38    23    43   am
    39    26    27    1
    40    26    28    1
    41    29    30    1
    42    29    31    1
    43    29    37   am
    44    32    39    1
    45    32    49    1
    46    33    34    1
    47    33    39    2
    48    33    45    1
    49    34    41    1
    50    35    36    1
    51    35    55    2
    52    37    38    1
    53    39    40    1
    54    41    42    1
    55    41    53    2
    56    43    44    1
    57    45    46    1
    58    45    47    2
    59    47    48    1
    60    47    53    1
    61    49    50    1
    62    49    51    2
    63    51    52    1
    64    51    55    1
    65    53    54    1
    66    55    56    1
    67    58    59    1
@<TRIPOS>SUBSTRUCTURE
     1 RES1        1 GROUP             0 ****  ****    0  
@<TRIPOS>CRYSIN
   16.3978   10.1472   14.6231   90.0000  106.7470   90.0000    14     1
