####################################################################### 
# 
# This file contains crystal structure data downloaded from the 
# Cambridge Structural Database (CSD) hosted by the Cambridge 
# Crystallographic Data Centre (CCDC).
# 
# Full information about CCDC data access policies and citation 
# guidelines are available at http://www.ccdc.cam.ac.uk/access/V1 
# 
# Audit and citation data items may have been added by the CCDC. 
# Please retain this information to preserve the provenance of 
# this file and to allow appropriate attribution of the data. 
# 
#######################################################################
@<TRIPOS>MOLECULE
TOXYOY
   113   126     1     0     0
SMALL
NO_CHARGES
****
Generated from the CSD

@<TRIPOS>ATOM
     1 Cd1      2.9711  17.2704  11.7406   Cd        1 RES1   0.0000
     2 Cd2     -0.7609  17.2554  12.7418   Cd        1 RES1   0.0000
     3 O4       2.2687  15.7156   4.7144   O.co2     1 RES1   0.0000
     4 O7       2.5267  17.6326  18.8740   O.co2     1 RES1   0.0000
     5 O8       4.6291  18.2077  19.0555   O.co2     1 RES1   0.0000
     6 O2       0.9653  16.6467  10.8723   O.co2     1 RES1   0.0000
     7 O3       3.5442  16.0340   6.4684   O.co2     1 RES1   0.0000
     8 O9       3.8377  15.2946  10.7791   O.3       1 RES1   0.0000
     9 H9       4.3695  15.3973  10.0222   H         1 RES1   0.0000
    10 O5       1.5260  18.7109  12.7342   O.co2     1 RES1   0.0000
    11 O6       0.1703  18.3823  14.4408   O.co2     1 RES1   0.0000
    12 O1      -1.0542  15.8560  10.9393   O.co2     1 RES1   0.0000
    13 C2       0.1941  15.4281   8.9711   C.2       1 RES1   0.0000
    14 C4       1.3367  15.2809   6.8706   C.2       1 RES1   0.0000
    15 C8      -0.8377  14.6202   8.4513   C.2       1 RES1   0.0000
    16 H8      -1.5801  14.4251   8.9777   H         1 RES1   0.0000
    17 C3       1.2992  15.7328   8.1848   C.2       1 RES1   0.0000
    18 H3       2.0034  16.2291   8.5330   H         1 RES1   0.0000
    19 O10      0.1861  15.3904  13.7836   O.3       1 RES1   0.0000
    20 H10      0.7455  15.5616  14.5061   H         1 RES1   0.0000
    21 C30      3.5372  18.1563  18.4245   C.2       1 RES1   0.0000
    22 C29      3.4801  18.7793  17.0383   C.2       1 RES1   0.0000
    23 C27      2.3747  19.0703  14.9312   C.2       1 RES1   0.0000
    24 C31      4.5489  19.5085  16.5887   C.2       1 RES1   0.0000
    25 H31      5.2943  19.6146  17.1331   H         1 RES1   0.0000
    26 C1       0.0413  15.9998  10.3246   C.2       1 RES1   0.0000
    27 N2       5.5941  20.9154  14.9704   N.pl3     1 RES1   0.0000
    28 H2       6.1495  21.1413  15.5867   H         1 RES1   0.0000
    29 C28      2.3753  18.5637  16.2422   C.2       1 RES1   0.0000
    30 H28      1.6433  18.0947  16.5675   H         1 RES1   0.0000
    31 C6       0.3110  14.4867   6.3426   C.2       1 RES1   0.0000
    32 H6       0.3395  14.2129   5.4549   H         1 RES1   0.0000
    33 C26      1.2907  18.7040  13.9814   C.2       1 RES1   0.0000
    34 C7      -0.7554  14.1136   7.1632   C.2       1 RES1   0.0000
    35 C32      4.5332  20.0973  15.3120   C.2       1 RES1   0.0000
    36 C33      3.4584  19.8131  14.5045   C.2       1 RES1   0.0000
    37 H33      3.4600  20.1349  13.6316   H         1 RES1   0.0000
    38 C5       2.4527  15.7054   5.9470   C.2       1 RES1   0.0000
    39 N1      -1.7117  13.2167   6.6630   N.pl3     1 RES1   0.0000
    40 H1      -1.6357  12.9292   5.8571   H         1 RES1   0.0000
    41 C36      8.1067  22.1991  13.0660   C.2       1 RES1   0.0000
    42 H36      8.3301  21.3159  12.8698   H         1 RES1   0.0000
    43 C34      5.8110  21.3946  13.6479   C.3       1 RES1   0.0000
    44 H34A     4.9753  21.7232  13.2916   H         1 RES1   0.0000
    45 H34B     6.1022  20.6552  13.0905   H         1 RES1   0.0000
    46 C45      5.8694  26.5567  14.4735   C.2       1 RES1   0.0000
    47 C35      6.8337  22.4832  13.5662   C.2       1 RES1   0.0000
    48 C24     -3.8098   9.1946   6.5404   C.2       1 RES1   0.0000
    49 C23     -3.0319  10.3037   6.9735   C.2       1 RES1   0.0000
    50 C9      -2.7982  12.7752   7.4541   C.3       1 RES1   0.0000
    51 H9A     -3.4278  13.5077   7.5571   H         1 RES1   0.0000
    52 H9B     -2.4695  12.5424   8.3352   H         1 RES1   0.0000
    53 C49      7.4373  24.8417  13.6398   C.2       1 RES1   0.0000
    54 C11     -4.7985  11.7756   6.3246   C.2       1 RES1   0.0000
    55 H11     -5.1278  12.6417   6.2379   H         1 RES1   0.0000
    56 C22     -1.7063  10.0024   7.4607   C.2       1 RES1   0.0000
    57 H22     -1.1429  10.7076   7.6895   H         1 RES1   0.0000
    58 C12     -5.5758  10.7418   5.9175   C.2       1 RES1   0.0000
    59 H12     -6.4138  10.9164   5.5514   H         1 RES1   0.0000
    60 C48      6.5253  23.8114  13.9144   C.2       1 RES1   0.0000
    61 C13     -5.1279   9.4068   6.0401   C.2       1 RES1   0.0000
    62 C25     -3.3225   7.8424   6.7267   C.2       1 RES1   0.0000
    63 C10     -3.5158  11.5942   6.8722   C.2       1 RES1   0.0000
    64 C40      9.3040  26.8990  13.0398   C.2       1 RES1   0.0000
    65 H40      9.9228  27.5631  12.8339   H         1 RES1   0.0000
    66 C51      3.6297  13.9733  11.2826   C.3       1 RES1   0.0000
    67 H51A     4.0504  13.8877  12.1424   H         1 RES1   0.0000
    68 H51B     4.0167  13.3366  10.6761   H         1 RES1   0.0000
    69 H51C     2.6900  13.8055  11.3676   H         1 RES1   0.0000
    70 C38      8.7432  24.5165  13.1183   C.2       1 RES1   0.0000
    71 C39      9.6059  25.6188  12.8224   C.2       1 RES1   0.0000
    72 H39     10.4375  25.4305  12.4514   H         1 RES1   0.0000
    73 C52     -0.0551  14.0451  13.5074   C.3       1 RES1   0.0000
    74 H52A    -0.9191  13.9493  13.1052   H         1 RES1   0.0000
    75 H52B    -0.0229  13.5419  14.3247   H         1 RES1   0.0000
    76 H52C     0.6181  13.7165  12.9042   H         1 RES1   0.0000
    77 C50      7.1224  26.2213  13.9275   C.2       1 RES1   0.0000
    78 C37      9.0281  23.1815  12.8584   C.2       1 RES1   0.0000
    79 H37      9.8700  22.9522  12.5364   H         1 RES1   0.0000
    80 C47      5.2625  24.1605  14.5012   C.2       1 RES1   0.0000
    81 H47      4.6422  23.4964  14.7056   H         1 RES1   0.0000
    82 C43      6.4659  28.8879  14.4310   C.2       1 RES1   0.0000
    83 H43      6.2538  29.7745  14.6042   H         1 RES1   0.0000
    84 C20     -2.0674   7.5857   7.2776   C.2       1 RES1   0.0000
    85 C21     -1.2584   8.7461   7.5964   C.2       1 RES1   0.0000
    86 H21     -0.3926   8.6160   7.9086   H         1 RES1   0.0000
    87 C46      4.9798  25.4682  14.7579   C.2       1 RES1   0.0000
    88 H46      4.1564  25.6701  15.1420   H         1 RES1   0.0000
    89 C19     -1.6630   6.2507   7.4639   C.2       1 RES1   0.0000
    90 H19     -0.8235   6.0658   7.8121   H         1 RES1   0.0000
    91 C16     -4.2000   6.7504   6.3377   C.2       1 RES1   0.0000
    92 C15     -5.4536   7.0003   5.7949   C.2       1 RES1   0.0000
    93 H15     -5.9915   6.2883   5.5301   H         1 RES1   0.0000
    94 C42      7.6936  28.5764  13.8637   C.2       1 RES1   0.0000
    95 H42      8.2929  29.2576  13.6643   H         1 RES1   0.0000
    96 C17     -3.6926   5.4462   6.5665   C.2       1 RES1   0.0000
    97 H17     -4.2096   4.7137   6.3131   H         1 RES1   0.0000
    98 C41      8.0316  27.2550  13.5875   C.2       1 RES1   0.0000
    99 C14     -5.8940   8.2703   5.6495   C.2       1 RES1   0.0000
   100 H14     -6.7357   8.4072   5.2784   H         1 RES1   0.0000
   101 C44      5.5755  27.9191  14.7366   C.2       1 RES1   0.0000
   102 H44      4.7655  28.1485  15.1257   H         1 RES1   0.0000
   103 C18     -2.4914   5.2340   7.1403   C.2       1 RES1   0.0000
   104 H18     -2.2200   4.3611   7.3185   H         1 RES1   0.0000
   105 Cd1      4.4446  16.9610   4.6062   Cd        1 RES1   0.0000
   106 Cd1      4.3870  16.9610  20.9530   Cd        1 RES1   0.0000
   107 Cd2      0.7032  16.9760   3.6050   Cd        1 RES1   0.0000
   108 Cd2      0.6456  16.9760  19.9518   Cd        1 RES1   0.0000
   109 O4      -2.3264  18.5158  11.6324   O.3       1 RES1   0.0000
   110 O4       5.1470  18.5158  11.6324   O.3       1 RES1   0.0000
   111 O7      -2.6420  16.5988  13.8196   O.3       1 RES1   0.0000
   112 O8       2.7290  16.0237  13.6381   O.3       1 RES1   0.0000
   113 O3       3.8715  18.1974   9.8784   O.3       1 RES1   0.0000
@<TRIPOS>BOND
     1     1     6    1
     2     1     8    1
     3     1    10    1
     4     1   110    1
     5     1   112    1
     6     1   113    1
     7     2     6    1
     8     2    10    1
     9     2    11    1
    10     2    12    1
    11     2    19    1
    12     2   109    1
    13     2   111    1
    14     3    38   un
    15     3   105    1
    16     3   107    1
    17     4    21   un
    18     4   108    1
    19     5    21   un
    20     5   106    1
    21     6    26   un
    22     7    38   un
    23     7   105    1
    24     8     9    1
    25     8    66    1
    26    10    33   un
    27    11    33   un
    28    12    26   un
    29    13    15    1
    30    13    17    2
    31    13    26    1
    32    14    17    1
    33    14    31    2
    34    14    38    1
    35    15    16    1
    36    15    34    2
    37    17    18    1
    38    19    20    1
    39    19    73    1
    40    21    22    1
    41    22    24    2
    42    22    29    1
    43    23    29    2
    44    23    33    1
    45    23    36    1
    46    24    25    1
    47    24    35    1
    48    27    28    1
    49    27    35    1
    50    27    43    1
    51    29    30    1
    52    31    32    1
    53    31    34    1
    54    34    39    1
    55    35    36    2
    56    36    37    1
    57    39    40    1
    58    39    50    1
    59    41    42    1
    60    41    47    2
    61    41    78    1
    62    43    44    1
    63    43    45    1
    64    43    47    1
    65    46    77    2
    66    46    87    1
    67    46   101    1
    68    47    60    1
    69    48    49    1
    70    48    61    1
    71    48    62    2
    72    49    56    1
    73    49    63    2
    74    50    51    1
    75    50    52    1
    76    50    63    1
    77    53    60    2
    78    53    70    1
    79    53    77    1
    80    54    55    1
    81    54    58    2
    82    54    63    1
    83    56    57    1
    84    56    85    2
    85    58    59    1
    86    58    61    1
    87    60    80    1
    88    61    99    2
    89    62    84    1
    90    62    91    1
    91    64    65    1
    92    64    71    2
    93    64    98    1
    94    66    67    1
    95    66    68    1
    96    66    69    1
    97    70    71    1
    98    70    78    2
    99    71    72    1
   100    73    74    1
   101    73    75    1
   102    73    76    1
   103    77    98    1
   104    78    79    1
   105    80    81    1
   106    80    87    2
   107    82    83    1
   108    82    94    1
   109    82   101    2
   110    84    85    1
   111    84    89    2
   112    85    86    1
   113    87    88    1
   114    89    90    1
   115    89   103    1
   116    91    92    2
   117    91    96    1
   118    92    93    1
   119    92    99    1
   120    94    95    1
   121    94    98    2
   122    96    97    1
   123    96   103    2
   124    99   100    1
   125   101   102    1
   126   103   104    1
@<TRIPOS>SUBSTRUCTURE
     1 RES1        1 GROUP             0 ****  ****    0  
@<TRIPOS>CRYSIN
    7.4734   34.2314   16.3469   90.0000   90.2020   90.0000    14     1
