####################################################################### 
# 
# This file contains crystal structure data downloaded from the 
# Cambridge Structural Database (CSD) hosted by the Cambridge 
# Crystallographic Data Centre (CCDC).
# 
# Full information about CCDC data access policies and citation 
# guidelines are available at http://www.ccdc.cam.ac.uk/access/V1 
# 
# Audit and citation data items may have been added by the CCDC. 
# Please retain this information to preserve the provenance of 
# this file and to allow appropriate attribution of the data. 
# 
#######################################################################
@<TRIPOS>MOLECULE
JIPVUD
    95   107     1     0     0
SMALL
USER_CHARGES
****
Generated from the CSD

@<TRIPOS>ATOM
     1 Zn1      1.3594   5.5721   3.5673   Zn        1 RES1   0.0000
     2 Zn2      0.0000   6.9315   9.2436   Zn        1 RES1   0.0000
     3 O1       3.2140   6.0471   3.5873   O.3       1 RES1   0.0000
     4 S1       6.2289   5.7532   5.7608   S.3       1 RES1   0.0000
     5 S2       9.3210   6.1164   5.4922   S.3       1 RES1   0.0000
     6 O2       3.4491   5.2818   5.3167   O.2       1 RES1   0.0000
     7 C1       3.9343   5.7171   4.3007   C.2       1 RES1   0.0000
     8 C2       5.4121   5.9888   4.2380   C.2       1 RES1   0.0000
     9 C3       6.1829   6.2301   3.2905   C.2       1 RES1   0.0000
    10 C5       7.7162   6.1192   4.8201   C.2       1 RES1   0.0000
    11 C6       8.8391   6.5212   2.9623   C.2       1 RES1   0.0000
    12 C8       5.8863   6.5323   2.2973   C.3       1 RES1   0.0000
    13 H8A      6.6834   6.6581   1.7422   H         1 RES1   0.0000
    14 H8B      5.3193   5.8363   1.9006   H         1 RES1   0.0000
    15 H8C      5.3848   7.3719   2.3465   H         1 RES1   0.0000
    16 C9       9.0498   6.9371   1.9920   C.3       1 RES1   0.0000
    17 H9A      8.2184   7.0122   1.4809   H         1 RES1   0.0000
    18 H9B      9.4496   7.8257   2.1001   H         1 RES1   0.0000
    19 H9C      9.6763   6.3531   1.5162   H         1 RES1   0.0000
    20 S1'      6.2009   5.6362   1.4503   S.3       1 RES1   0.0000
    21 S2'      9.2960   6.0024   1.6555   S.3       1 RES1   0.0000
    22 O2'      3.4408   5.2569   1.8350   O.2       1 RES1   0.0000
    23 C1'      3.8983   5.7365   2.8710   C.2       1 RES1   0.0000
    24 C2'      5.4066   5.8973   2.9537   C.2       1 RES1   0.0000
    25 C3'      6.1386   6.1829   4.0268   C.2       1 RES1   0.0000
    26 C5'      7.7023   5.9694   2.3030   C.2       1 RES1   0.0000
    27 C6'      8.8890   6.4907   4.3664   C.2       1 RES1   0.0000
    28 C8'      5.7781   6.4740   5.1569   C.3       1 RES1   0.0000
    29 H8'A     6.5631   6.6256   5.7227   H         1 RES1   0.0000
    30 H8'B     5.2346   7.2894   5.1265   H         1 RES1   0.0000
    31 H8'C     5.2438   5.7406   5.5293   H         1 RES1   0.0000
    32 C9'      8.9472   6.9315   5.4680   C.3       1 RES1   0.0000
    33 H9'A     8.0623   6.8795   5.8892   H         1 RES1   0.0000
    34 H9'B     9.5894   6.4129   5.9955   H         1 RES1   0.0000
    35 H9'C     9.2348   7.8679   5.4315   H         1 RES1   0.0000
    36 O3      11.8909   6.6687   2.4483   O.co2     1 RES1  -1.0000
    37 O4      11.8895   6.6631   4.6032   O.co2     1 RES1   0.0000
    38 N1       0.4810   6.4571   5.1657   N.2       1 RES1   0.0000
    39 N2       0.0000   6.9315   7.2536   N.2       1 RES1   0.0000
    40 C10     11.3330   6.5883   3.5288   C.2       1 RES1   0.0000
    41 C11      0.7386   6.2009   6.4251   C.2       1 RES1   0.0000
    42 H11A     1.3818   5.5640   6.7134   H         1 RES1   0.0000
    43 C4       7.5875   6.2716   3.5901   C.1       1 RES1   0.0000
    44 C7       9.8594   6.4269   3.5930   C.1       1 RES1   0.0000
    45 N3      -0.4810   7.4059   5.1657   N.2       1 RES1   0.0000
    46 C19     -0.7386   7.6621   6.4251   C.2       1 RES1   0.0000
    47 H14     -1.3818   8.2990   6.7134   H         1 RES1   0.0000
    48 O6       0.8845   3.7175   3.5473   O.3       1 RES1   0.0000
    49 S5       1.1784   0.7026   1.3738   S.3       1 RES1   0.0000
    50 S6       0.8151  -2.3894   1.6424   S.3       1 RES1   0.0000
    51 O7       1.6497   3.4824   1.8179   O.2       1 RES1   0.0000
    52 C20      1.2144   2.9972   2.8339   C.2       1 RES1   0.0000
    53 C21      0.9427   1.5194   2.8966   C.2       1 RES1   0.0000
    54 C22      0.7015   0.7486   3.8441   C.2       1 RES1   0.0000
    55 C23      0.8124  -0.7846   2.3145   C.2       1 RES1   0.0000
    56 C24      0.4103  -1.9076   4.1723   C.2       1 RES1   0.0000
    57 C25      0.3993   1.0453   4.8373   C.3       1 RES1   0.0000
    58 H15      0.2734   0.2481   5.3924   H         1 RES1   0.0000
    59 H16      1.0952   1.6122   5.2340   H         1 RES1   0.0000
    60 H17     -0.4403   1.5468   4.7881   H         1 RES1   0.0000
    61 C26     -0.0055  -2.1183   5.1426   C.3       1 RES1   0.0000
    62 H18     -0.0807  -1.2869   5.6537   H         1 RES1   0.0000
    63 H19     -0.8942  -2.5181   5.0345   H         1 RES1   0.0000
    64 H20      0.5784  -2.7447   5.6184   H         1 RES1   0.0000
    65 O9       0.2628  -4.9594   4.6863   O.co2     1 RES1   0.0000
    66 O10      0.2684  -4.9580   2.5314   O.co2     1 RES1   0.0000
    67 C34      0.3432  -4.4015   3.6058   C.2       1 RES1   0.0000
    68 C35      0.6599  -0.6560   3.5445   C.1       1 RES1   0.0000
    69 C36      0.5046  -2.9279   3.5416   C.1       1 RES1   0.0000
    70 Zn3     -1.3594   8.2909   3.5673   Zn        1 RES1   0.0000
    71 Zn4     13.8630   6.9315   2.1090   Zn        1 RES1   0.0000
    72 Zn5      0.0000  -6.9315   5.0256   Zn        1 RES1   0.0000
    73 Zn6     13.8630   6.9315   5.0256   Zn        1 RES1   0.0000
    74 Zn7      0.0000  -6.9315   2.1090   Zn        1 RES1   0.0000
    75 O11      0.2628   4.9594   9.5829   O.3       1 RES1   0.0000
    76 O12     -0.2628   8.9037   9.5829   O.3       1 RES1   0.0000
    77 O13     -1.9735   6.6631   9.6660   O.3       1 RES1   0.0000
    78 O14      1.9735   7.1999   9.6660   O.3       1 RES1   0.0000
    79 N4       0.4744   6.4505   1.9689   N.3       1 RES1   0.0000
    80 S7       1.2954   0.7306   5.6843   S.3       1 RES1   0.0000
    81 S8       0.9291  -2.3645   5.4791   S.3       1 RES1   0.0000
    82 O8       1.6747   3.4907   5.2996   O.2       1 RES1   0.0000
    83 C27      1.1950   3.0332   4.2636   C.2       1 RES1   0.0000
    84 C28      1.0342   1.5249   4.1809   C.2       1 RES1   0.0000
    85 C29      0.7486   0.7930   3.1078   C.2       1 RES1   0.0000
    86 C30      0.9621  -0.7708   4.8316   C.2       1 RES1   0.0000
    87 C31      0.4408  -1.9575   2.7682   C.2       1 RES1   0.0000
    88 C32      0.4575   1.1534   1.9777   C.3       1 RES1   0.0000
    89 H21      0.3060   0.3684   1.4119   H         1 RES1   0.0000
    90 H22     -0.3578   1.6969   2.0081   H         1 RES1   0.0000
    91 H23      1.1909   1.6877   1.6053   H         1 RES1   0.0000
    92 C33      0.0000  -2.0157   1.6666   C.3       1 RES1   0.0000
    93 H24      0.0520  -1.1308   1.2454   H         1 RES1   0.0000
    94 H25      0.5186  -2.6579   1.1391   H         1 RES1   0.0000
    95 H26     -0.9364  -2.3032   1.7031   H         1 RES1   0.0000
@<TRIPOS>BOND
     1     1     3    1
     2     1    38    1
     3     1    48    1
     4     1    79    1
     5     2    39    1
     6     2    75    1
     7     2    76    1
     8     2    77    1
     9     2    78    1
    10     3     7    1
    11     4     8    1
    12     4    10    1
    13     5    10    1
    14     5    44    1
    15     6     7    2
    16     7     8    1
    17     8     9    2
    18     9    12    1
    19     9    43    1
    20    10    43    2
    21    11    16    1
    22    11    43    1
    23    11    44    2
    24    12    13    1
    25    12    14    1
    26    12    15    1
    27    16    17    1
    28    16    18    1
    29    16    19    1
    30    36    40   un
    31    36    71    1
    32    37    40   un
    33    37    73    1
    34    38    41    2
    35    38    45    1
    36    39    41    1
    37    39    46    1
    38    40    44    1
    39    41    42    1
    40    45    46    2
    41    45    70    1
    42    46    47    1
    43    48    52    1
    44    49    53    1
    45    49    55    1
    46    50    55    1
    47    50    69    1
    48    51    52    2
    49    52    53    1
    50    53    54    2
    51    54    57    1
    52    54    68    1
    53    55    68    2
    54    56    61    1
    55    56    68    1
    56    56    69    2
    57    57    58    1
    58    57    59    1
    59    57    60    1
    60    61    62    1
    61    61    63    1
    62    61    64    1
    63    65    67   un
    64    65    72    1
    65    66    67   un
    66    66    74    1
    67    67    69    1
    68     3    23    1
    69    20    24    1
    70    20    26    1
    71    21    26    1
    72    21    44    1
    73    22    23    2
    74    23    24    1
    75    24    25    2
    76    25    28    1
    77    25    43    1
    78    26    43    2
    79    27    32    1
    80    27    43    1
    81    27    44    2
    82    28    29    1
    83    28    30    1
    84    28    31    1
    85    32    33    1
    86    32    34    1
    87    32    35    1
    88    48    83    1
    89    80    84    1
    90    80    86    1
    91    81    86    1
    92    81    69    1
    93    82    83    2
    94    83    84    1
    95    84    85    2
    96    85    88    1
    97    85    68    1
    98    86    68    2
    99    87    92    1
   100    87    68    1
   101    87    69    2
   102    88    89    1
   103    88    90    1
   104    88    91    1
   105    92    93    1
   106    92    94    1
   107    92    95    1
@<TRIPOS>SUBSTRUCTURE
     1 RES1        1 GROUP             0 ****  ****    0  
