####################################################################### 
# 
# This file contains crystal structure data downloaded from the 
# Cambridge Structural Database (CSD) hosted by the Cambridge 
# Crystallographic Data Centre (CCDC).
# 
# Full information about CCDC data access policies and citation 
# guidelines are available at http://www.ccdc.cam.ac.uk/access/V1 
# 
# Audit and citation data items may have been added by the CCDC. 
# Please retain this information to preserve the provenance of 
# this file and to allow appropriate attribution of the data. 
# 
#######################################################################
@<TRIPOS>MOLECULE
JIPWAK
    59    68     1     0     0
SMALL
NO_CHARGES
****
Generated from the CSD

@<TRIPOS>ATOM
     1 Zn1      6.3755  12.1992  16.8463   Zn        1 RES1   0.0000
     2 S1       7.3552  11.3402  21.8054   S.3       1 RES1   0.0000
     3 C3       5.4937  13.0828  21.6236   C.2       1 RES1   0.0000
     4 C5       4.3966  14.1064  21.0668   C.3       1 RES1   0.0000
     5 H5A      3.9450  14.5226  21.8053   H         1 RES1   0.0000
     6 H5B      4.8269  14.7786  20.5347   H         1 RES1   0.0000
     7 H5C      3.7592  13.6307  20.5295   H         1 RES1   0.0000
     8 S1'      5.0393  13.6641  21.2563   S.3       1 RES1   0.0000
     9 C3'      6.7605  11.8239  21.8759   C.2       1 RES1   0.0000
    10 C5'      7.7641  10.6840  21.8082   C.3       1 RES1   0.0000
    11 H5'A     8.0121  10.4223  22.6975   H         1 RES1   0.0000
    12 H5'B     7.3695   9.9375  21.3523   H         1 RES1   0.0000
    13 H5'C     8.5451  10.9744  21.3304   H         1 RES1   0.0000
    14 C1       6.4505  12.2008  19.3776   C.2       1 RES1   0.0000
    15 C2       6.2407  12.3919  20.8465   C.1       1 RES1   0.0000
    16 C4       5.5137  13.1255  22.9661   C.2       1 RES1   0.0000
    17 N2       6.1783   8.3605  15.2574   N.2       1 RES1   0.0000
    18 N1       6.9686   8.1161  16.3495   N.2       1 RES1   0.0000
    19 N3       6.4505  10.2592  16.3403   N.2       1 RES1   0.0000
    20 O2       5.6447  12.7821  18.5989   O.co2     1 RES1   0.0000
    21 O1       7.3833  11.5046  18.9795   O.co2     1 RES1   0.0000
    22 C7       5.8933   9.6409  15.2934   C.2       1 RES1   0.0000
    23 H7A      5.3623  10.0703  14.6617   H         1 RES1   0.0000
    24 C6       7.1240   9.2715  16.9623   C.2       1 RES1   0.0000
    25 H6A      7.6367   9.3906  17.7296   H         1 RES1   0.0000
    26 S4       6.9824  11.7210  24.8888   S.3       1 RES1   0.0000
    27 C12      5.1422  13.4422  24.2692   C.2       1 RES1   0.0000
    28 C13      4.0023  14.4458  24.3369   C.3       1 RES1   0.0000
    29 H12      3.7406  14.6938  23.4476   H         1 RES1   0.0000
    30 H13      3.2558  14.0512  24.7928   H         1 RES1   0.0000
    31 H14      4.2927  15.2268  24.8147   H         1 RES1   0.0000
    32 C14      5.5191  13.1322  26.7675   C.2       1 RES1   0.0000
    33 C15      5.7102  12.9224  25.2986   C.1       1 RES1   0.0000
    34 C16      6.4438  12.1954  23.1790   C.2       1 RES1   0.0000
    35 O3       6.1004  12.3264  27.5462   O.co2     1 RES1   0.0000
    36 O4       4.8229  14.0650  27.1656   O.co2     1 RES1   0.0000
    37 Zn2      7.8459   6.3755  16.8463   Zn        1 RES1   0.0000
    38 N4      11.6846   6.1783  15.2574   N.2       1 RES1   0.0000
    39 N5      11.9290   6.9686  16.3495   N.2       1 RES1   0.0000
    40 N6       9.7859   6.4505  16.3403   N.2       1 RES1   0.0000
    41 C17     10.4042   5.8933  15.2934   C.2       1 RES1   0.0000
    42 H15      9.9748   5.3623  14.6617   H         1 RES1   0.0000
    43 C18     10.7736   7.1240  16.9623   C.2       1 RES1   0.0000
    44 H16     10.6545   7.6367  17.7296   H         1 RES1   0.0000
    45 Zn3     13.6696   7.8459  16.8463   Zn        1 RES1   0.0000
    46 Zn4      5.5175  13.0572  29.2988   Zn        1 RES1   0.0000
    47 Zn5     13.0572   5.5175  13.9171   Zn        1 RES1   0.0000
    48 Zn6      5.5175   6.9879  13.9171   Zn        1 RES1   0.0000
    49 N7       7.1851   5.0029  15.5060   N.3       1 RES1   0.0000
    50 N8       5.0029  12.8600  15.5060   N.3       1 RES1   0.0000
    51 N9       8.1161  13.0765  16.3495   N.3       1 RES1   0.0000
    52 O5       7.2630   5.6447  18.5989   O.3       1 RES1   0.0000
    53 O6       8.5405   7.3833  18.9795   O.3       1 RES1   0.0000
    54 S3       4.6585  14.0369  24.3397   S.3       1 RES1   0.0000
    55 C10      6.4011  12.1754  24.5215   C.2       1 RES1   0.0000
    56 C11      7.4247  11.0783  25.0783   C.3       1 RES1   0.0000
    57 H9       7.8409  10.6267  24.3398   H         1 RES1   0.0000
    58 H10      8.0969  11.5086  25.6104   H         1 RES1   0.0000
    59 H11      6.9490  10.4409  25.6156   H         1 RES1   0.0000
@<TRIPOS>BOND
     1     1    19    1
     2     1    20    1
     3     1    21    1
     4     1    50    1
     5     1    51    1
     6     8    15    1
     7     8    16    1
     8     9    10    1
     9     9    15    2
    10     9    34    1
    11    10    11    1
    12    10    12    1
    13    10    13    1
    14    14    15    1
    15    14    20   un
    16    14    21   un
    17    16    27    1
    18    16    34    2
    19    17    18    1
    20    17    22    2
    21    17    48    1
    22    18    24    2
    23    18    37    1
    24    19    22    1
    25    19    24    1
    26    22    23    1
    27    24    25    1
    28    26    33    1
    29    26    34    1
    30    27    28    1
    31    27    33    2
    32    28    29    1
    33    28    30    1
    34    28    31    1
    35    32    33    1
    36    32    35   un
    37    32    36   un
    38    35    46    1
    39    36    46    1
    40    37    40    1
    41    37    49    1
    42    37    52    1
    43    37    53    1
    44    38    39    1
    45    38    41    2
    46    38    47    1
    47    39    43    2
    48    39    45    1
    49    40    41    1
    50    40    43    1
    51    41    42    1
    52    43    44    1
    53     2    15    1
    54     2    34    1
    55     3     4    1
    56     3    15    2
    57     3    16    1
    58     4     5    1
    59     4     6    1
    60     4     7    1
    61    16    54    1
    62    54    33    1
    63    55    56    1
    64    55    33    2
    65    55    34    1
    66    56    57    1
    67    56    58    1
    68    56    59    1
@<TRIPOS>SUBSTRUCTURE
     1 RES1        1 GROUP             0 ****  ****    0  
