####################################################################### 
# 
# This file contains crystal structure data downloaded from the 
# Cambridge Structural Database (CSD) hosted by the Cambridge 
# Crystallographic Data Centre (CCDC).
# 
# Full information about CCDC data access policies and citation 
# guidelines are available at http://www.ccdc.cam.ac.uk/access/V1 
# 
# Audit and citation data items may have been added by the CCDC. 
# Please retain this information to preserve the provenance of 
# this file and to allow appropriate attribution of the data. 
# 
#######################################################################
@<TRIPOS>MOLECULE
RONDEH
   132   137     3     0     0
SMALL
USER_CHARGES
****
Generated from the CSD

@<TRIPOS>ATOM
     1 Zn1      8.2017   4.7352  10.5227   Zn        1 RES1   0.0000
     2 Zn2      8.2017  14.2058  22.2422   Zn        1 RES1   0.0000
     3 Cu1      2.4865   9.9595  16.3628   Cu        1 RES1   0.0000
     4 Cl1      0.0000   9.4705  16.3693   Cl        1 RES1  -1.0000
     5 O1       8.2017   4.7352   8.5618   O.3       1 RES1   0.0000
     6 O2       7.0707   6.0644  11.4375   O.co2     1 RES1   0.0000
     7 O3       7.1781   7.4950   9.7160   O.co2     1 RES1   0.0000
     8 O5       5.1704   7.4467  12.6344   O.3       1 RES1   0.0000
     9 O6       3.8515   6.9495  14.9462   O.co2     1 RES1   0.0000
    10 O4       2.7131   8.8985  14.6937   O.co2     1 RES1   0.0000
    11 O8       3.0289   8.3885  17.5367   O.3       1 RES1   0.0000
    12 H8A      2.9472   8.5184  18.4063   H         1 RES1   0.0000
    13 H8B      3.4225   7.6815  17.2750   H         1 RES1   0.0000
    14 O9       2.4917  11.6232  15.1921   O.3       1 RES1   0.0000
    15 H9A      2.4491  11.6081  14.3081   H         1 RES1   0.0000
    16 H9B      2.2160  12.4628  15.2328   H         1 RES1   0.0000
    17 O11      2.1488  11.1913  17.9761   O.co2     1 RES1   0.0000
    18 O10      4.3485  11.3873  17.8974   O.co2     1 RES1   0.0000
    19 O12      4.4133  12.8718  20.0813   O.3       1 RES1   0.0000
    20 O13      5.2581  14.6930  22.9997   O.co2     1 RES1   0.0000
    21 O14      6.5097  13.8435  21.3208   O.co2     1 RES1  -1.0000
    22 O15      8.2017  14.2058  24.1834   O.3       1 RES1   0.0000
    23 C1       6.7188   7.1285  10.7719   C.2       1 RES1   0.0000
    24 C2       5.6575   7.9012  11.4343   C.2       1 RES1   0.0000
    25 C3       4.9546   9.0107  11.0670   C.2       1 RES1   0.0000
    26 H3       5.0600   9.5099  10.2670   H         1 RES1   0.0000
    27 C4       4.0303   9.2764  12.1261   C.2       1 RES1   0.0000
    28 H4       3.4126   9.9970  12.1786   H         1 RES1   0.0000
    29 C5       4.2132   8.3004  13.0266   C.2       1 RES1   0.0000
    30 C6       3.5530   8.0092  14.3074   C.2       1 RES1   0.0000
    31 C7       3.2512  11.6118  18.4050   C.2       1 RES1   0.0000
    32 C8       3.2036  12.3988  19.6455   C.2       1 RES1   0.0000
    33 C9       2.2120  12.7781  20.5469   C.2       1 RES1   0.0000
    34 H9       1.2809  12.5934  20.4945   H         1 RES1   0.0000
    35 C10      2.8985  13.5068  21.5667   C.2       1 RES1   0.0000
    36 H10      2.5030  13.9010  22.3366   H         1 RES1   0.0000
    37 C11      4.2099  13.5338  21.2454   C.2       1 RES1   0.0000
    38 C12      5.3984  14.0665  21.9274   C.2       1 RES1   0.0000
    39 O7       1.6715   7.5717  16.4021   O.3       1 RES1   0.0000
    40 H7A      2.0261   7.9238  15.6910   H         1 RES1   0.0000
    41 H7B      1.1665   8.0683  16.9088   H         1 RES1   0.0000
    42 Cu1      6.5350  -2.8264  16.3628   Cu        1 RES1   0.0000
    43 O2       7.6161   3.0912  11.4375   O.co2     1 RES1   0.0000
    44 O3       6.3235   2.4690   9.7160   O.co2     1 RES1   0.0000
    45 O5       7.3692   0.7543  12.6344   O.3       1 RES1   0.0000
    46 O6       8.4592  -0.1392  14.9462   O.co2     1 RES1   0.0000
    47 O4       7.3405  -2.0996  14.6937   O.co2     1 RES1   0.0000
    48 O8       7.6243  -1.5712  17.5367   O.3       1 RES1   0.0000
    49 H8A      7.5527  -1.7069  18.4063   H         1 RES1   0.0000
    50 H8B      8.0398  -0.8768  17.2750   H         1 RES1   0.0000
    51 O9       5.0916  -3.6537  15.1921   O.3       1 RES1   0.0000
    52 H9A      5.1259  -3.6830  14.3081   H         1 RES1   0.0000
    53 H9B      4.5023  -4.3123  15.2328   H         1 RES1   0.0000
    54 O11      5.6370  -3.7347  17.9761   O.co2     1 RES1   0.0000
    55 O10      4.3674  -1.9277  17.8974   O.co2     1 RES1   0.0000
    56 O12      3.0494  -2.6139  20.0813   O.3       1 RES1   0.0000
    57 O13      1.0498  -2.7929  22.9997   O.co2     1 RES1   0.0000
    58 O14      1.1597  -1.2842  21.3208   O.co2     1 RES1   0.0000
    59 C1       6.8706   2.2545  10.7719   C.2       1 RES1   0.0000
    60 C2       6.7320   0.9489  11.4343   C.2       1 RES1   0.0000
    61 C3       6.1226  -0.2145  11.0670   C.2       1 RES1   0.0000
    62 H3       5.6376  -0.3729  10.2670   H         1 RES1   0.0000
    63 C4       6.3547  -1.1478  12.1261   C.2       1 RES1   0.0000
    64 H4       6.0394  -2.0431  12.1786   H         1 RES1   0.0000
    65 C5       7.1084  -0.5015  13.0266   C.2       1 RES1   0.0000
    66 C6       7.6907  -0.9276  14.3074   C.2       1 RES1   0.0000
    67 C7       4.7217  -2.9903  18.4050   C.2       1 RES1   0.0000
    68 C8       4.0639  -3.4250  19.6455   C.2       1 RES1   0.0000
    69 C9       4.2313  -4.4734  20.5469   C.2       1 RES1   0.0000
    70 H9       4.8567  -5.1874  20.4945   H         1 RES1   0.0000
    71 C10      3.2569  -4.2433  21.5667   C.2       1 RES1   0.0000
    72 H10      3.1133  -4.7828  22.3366   H         1 RES1   0.0000
    73 C11      2.5778  -3.1210  21.2454   C.2       1 RES1   0.0000
    74 C12      1.5222  -2.3582  21.9274   C.2       1 RES1   0.0000
    75 O7       9.0104  -2.3383  16.4021   O.3       1 RES1   0.0000
    76 H7A      8.5281  -2.2072  15.6910   H         1 RES1   0.0000
    77 H7B      8.8328  -3.0239  16.9088   H         1 RES1   0.0000
    78 Cu1     -0.8198   7.0726  16.3628   Cu        1 RES1   0.0000
    79 O2      -6.4851   5.0501  11.4375   O.co2     1 RES1   0.0000
    80 O3      -5.2999   4.2418   9.7160   O.co2     1 RES1   0.0000
    81 O5      -4.3379   6.0048  12.6344   O.3       1 RES1   0.0000
    82 O6      -4.1091   7.3955  14.9462   O.co2     1 RES1   0.0000
    83 O4      -1.8519   7.4069  14.6937   O.co2     1 RES1  -1.0000
    84 O8      -2.4515   7.3884  17.5367   O.3       1 RES1   0.0000
    85 H8A     -2.2981   7.3942  18.4063   H         1 RES1   0.0000
    86 H8B     -3.2605   7.4011  17.2750   H         1 RES1   0.0000
    87 O9       0.6184   6.2363  15.1921   O.3       1 RES1   0.0000
    88 H9A      0.6266   6.2807  14.3081   H         1 RES1   0.0000
    89 H9B      1.4835   6.0553  15.2328   H         1 RES1   0.0000
    90 O11      0.4158   6.7492  17.9761   O.co2     1 RES1   0.0000
    91 O10     -0.5142   4.7461  17.8974   O.co2     1 RES1   0.0000
    92 O12      0.7390   3.9478  20.0813   O.3       1 RES1   0.0000
    93 O13      1.8938   2.3056  22.9997   O.co2     1 RES1   0.0000
    94 O14      0.5323   1.6464  21.3208   O.co2     1 RES1   0.0000
    95 C1      -5.3877   4.8229  10.7719   C.2       1 RES1   0.0000
    96 C2      -4.1878   5.3556  11.4343   C.2       1 RES1   0.0000
    97 C3      -2.8755   5.4096  11.0670   C.2       1 RES1   0.0000
    98 H3      -2.4959   5.0688  10.2670   H         1 RES1   0.0000
    99 C4      -2.1833   6.0772  12.1261   C.2       1 RES1   0.0000
   100 H4      -1.2504   6.2518  12.1786   H         1 RES1   0.0000
   101 C5      -3.1199   6.4068  13.0266   C.2       1 RES1   0.0000
   102 C6      -3.0420   7.1242  14.3074   C.2       1 RES1   0.0000
   103 C7       0.2288   5.5843  18.4050   C.2       1 RES1   0.0000
   104 C8       0.9342   5.2320  19.6455   C.2       1 RES1   0.0000
   105 C9       1.7584   5.9011  20.5469   C.2       1 RES1   0.0000
   106 H9       2.0641   6.7998  20.4945   H         1 RES1   0.0000
   107 C10      2.0463   4.9422  21.5667   C.2       1 RES1   0.0000
   108 H10      2.5854   5.0876  22.3366   H         1 RES1   0.0000
   109 C11      1.4140   3.7929  21.2454   C.2       1 RES1   0.0000
   110 C12      1.2811   2.4974  21.9274   C.2       1 RES1   0.0000
   111 O7      -2.4802   8.9724  16.4021   O.3       1 RES1   0.0000
   112 H7A     -2.3526   8.4892  15.6910   H         1 RES1   0.0000
   113 H7B     -1.7976   9.1614  16.9088   H         1 RES1   0.0000
   114 Zn1     -8.2017   4.7352  10.5227   Zn        1 RES1   0.0000
   115 Zn2      0.0000   0.0000  22.2422   Zn        1 RES1   0.0000
   116 Cu1     10.6882  -4.2462  16.3628   Cu        1 RES1   0.0000
   117 Cu1     -1.6667  11.3794  16.3628   Cu        1 RES1   0.0000
   118 Cl1      8.2017  -4.7352  16.3693   Cl        1 RES1   0.0000
   119 O2       9.9183   5.0501  11.4375   O.3       1 RES1   0.0000
   120 O14      9.3614  12.9216  21.3208   O.3       1 RES1   0.0000
   121 O14      8.7340  15.8522  21.3208   O.3       1 RES1   0.0000
   122 O7       0.8087  11.8675  16.4021   O.3       1 RES1   0.0000
   123 O7       5.7215  -5.2334  16.4021   O.3       1 RES1   0.0000
   124 N1       6.9345  11.8689  19.1402   N.4       2 RES2   1.0000
   125 H1C      6.1525  11.7930  18.7668   H         2 RES2   0.0000
   126 H1D      6.8142  12.4476  19.7804   H         2 RES2   0.0000
   127 H1E      7.0940  11.1228  19.5131   H         2 RES2   0.0000
   128 H1F      7.5290  12.1181  18.5845   H         2 RES2   0.0000
   129 H1B?     9.0561   4.7540   8.1974   H         3 RES3   0.0000
   130 H15B?    9.0174  14.1200  24.4724   H         3 RES3   0.0000
   131 H15A?    7.9483  14.9859  24.4724   H         3 RES3   0.0000
   132 H1A?     7.8708   3.9462   8.1974   H         3 RES3   0.0000
@<TRIPOS>BOND
     1     1     5    1
     2     1     6    1
     3     1    43    1
     4     1   119    1
     5     2    21    1
     6     2    22    1
     7     2   120    1
     8     2   121    1
     9     3     4    1
    10     3    10    1
    11     3    11    1
    12     3    14    1
    13     3    17    1
    14     3    39    1
    15     3   122    1
    16     4    78    1
    17     4   117    1
    18     6    23    1
    19     7    23    2
    20     8    24    1
    21     8    29    1
    22     9    30    2
    23    10    30    1
    24    11    12    1
    25    11    13    1
    26    14    15    1
    27    14    16    1
    28    17    31    1
    29    18    31    2
    30    19    32    1
    31    19    37    1
    32    20    38    2
    33    21    38    1
    34    23    24    1
    35    24    25    2
    36    25    26    1
    37    25    27    1
    38    27    28    1
    39    27    29    2
    40    29    30    1
    41    31    32    1
    42    32    33    2
    43    33    34    1
    44    33    35    1
    45    35    36    1
    46    35    37    2
    47    37    38    1
    48    39    40    1
    49    39    41    1
    50    39    78    1
    51    42    47    1
    52    42    48    1
    53    42    51    1
    54    42    54    1
    55    42    75    1
    56    42   118    1
    57    42   123    1
    58    43    59    1
    59    44    59    2
    60    45    60    1
    61    45    65    1
    62    46    66    2
    63    47    66    1
    64    48    49    1
    65    48    50    1
    66    51    52    1
    67    51    53    1
    68    54    67    1
    69    55    67    2
    70    56    68    1
    71    56    73    1
    72    57    74    2
    73    58    74    1
    74    58   115    1
    75    59    60    1
    76    60    61    2
    77    61    62    1
    78    61    63    1
    79    63    64    1
    80    63    65    2
    81    65    66    1
    82    67    68    1
    83    68    69    2
    84    69    70    1
    85    69    71    1
    86    71    72    1
    87    71    73    2
    88    73    74    1
    89    75    76    1
    90    75    77    1
    91    75   116    1
    92    78    83    1
    93    78    84    1
    94    78    87    1
    95    78    90    1
    96    78   111    1
    97    79    95    1
    98    79   114    1
    99    80    95    2
   100    81    96    1
   101    81   101    1
   102    82   102    2
   103    83   102    1
   104    84    85    1
   105    84    86    1
   106    87    88    1
   107    87    89    1
   108    90   103    1
   109    91   103    2
   110    92   104    1
   111    92   109    1
   112    93   110    2
   113    94   110    1
   114    94   115    1
   115    95    96    1
   116    96    97    2
   117    97    98    1
   118    97    99    1
   119    99   100    1
   120    99   101    2
   121   101   102    1
   122   103   104    1
   123   104   105    2
   124   105   106    1
   125   105   107    1
   126   107   108    1
   127   107   109    2
   128   109   110    1
   129   111   112    1
   130   111   113    1
   131   111   117    1
   132   116   118    1
   133   117   122    1
   134   124   125    1
   135   124   126    1
   136   124   127    1
   137   124   128    1
@<TRIPOS>SUBSTRUCTURE
     1 RES1        1 GROUP             0 ****  ****    0  
     2 RES2      124 GROUP             0 ****  ****    0  
     3 RES3      129 GROUP             0 ****  ****    0  
@<TRIPOS>CRYSIN
   16.4034   16.4034   32.7911   90.0000   90.0000  120.0000   236     1
