####################################################################### 
# 
# This file contains crystal structure data downloaded from the 
# Cambridge Structural Database (CSD) hosted by the Cambridge 
# Crystallographic Data Centre (CCDC).
# 
# Full information about CCDC data access policies and citation 
# guidelines are available at http://www.ccdc.cam.ac.uk/access/V1 
# 
# Audit and citation data items may have been added by the CCDC. 
# Please retain this information to preserve the provenance of 
# this file and to allow appropriate attribution of the data. 
# 
#######################################################################
@<TRIPOS>MOLECULE
VOSPIG
   406   460     6     0     0
SMALL
NO_CHARGES
****
Generated from the CSD

@<TRIPOS>ATOM
     1 Zr1      5.2472   7.7074   7.7073   Zr        1 RES1   0.0000
     2 Ni1      0.0000   0.0000   7.7073   Ni        1 RES1   0.0000
     3 O3       0.0000   0.0000  10.0997   O.3       1 RES1   0.0000
     4 O1       6.4680   8.9467   8.9467   O.3       1 RES1   0.0000
     5 O2       4.1203   5.7420   7.7073   O.co2     1 RES1   0.0000
     6 N1       1.4891   1.4891   7.7073   N.4       1 RES1   0.0000
     7 C3       3.5223   3.5223   7.7073   C.3       1 RES1   0.0000
     8 C4       4.5535   4.5535   7.7073   C.2       1 RES1   0.0000
     9 C1       2.6005   1.4228   6.8857   C.2       1 RES1   0.0000
    10 H1       2.6786   0.6775   6.3013   H         1 RES1   0.0000
    11 C2       3.5947   2.3662   6.8611   C.2       1 RES1   0.0000
    12 N3       4.8248   2.1272   6.5050   N.pl3     1 RES1   0.0000
    13 H3A      5.0800   1.5684   7.1590   H         1 RES1   0.0000
    14 H3B      4.8319   1.6868   5.7277   H         1 RES1   0.0000
    15 O2       5.7420   4.1203   7.7073   O.co2     1 RES1   0.0000
    16 C1       1.4228   2.6005   8.5290   C.2       1 RES1   0.0000
    17 H1       0.6775   2.6786   9.1134   H         1 RES1   0.0000
    18 C2       2.3662   3.5947   8.5536   C.2       1 RES1   0.0000
    19 N3       2.1272   4.8248   8.9097   N.pl3     1 RES1   0.0000
    20 H3A      1.5684   5.0800   8.2557   H         1 RES1   0.0000
    21 H3B      1.6868   4.8319   9.6870   H         1 RES1   0.0000
    22 C1       2.6005   1.4228   8.5290   C.2       1 RES1   0.0000
    23 H1       2.6786   0.6775   9.1134   H         1 RES1   0.0000
    24 C2       3.5947   2.3662   8.5536   C.2       1 RES1   0.0000
    25 N3       4.8248   2.1272   8.9097   N.pl3     1 RES1   0.0000
    26 H3A      5.0800   1.5684   8.2557   H         1 RES1   0.0000
    27 H3B      4.8319   1.6868   9.6870   H         1 RES1   0.0000
    28 C1       1.4228   2.6005   6.8857   C.2       1 RES1   0.0000
    29 H1       0.6775   2.6786   6.3013   H         1 RES1   0.0000
    30 C2       2.3662   3.5947   6.8611   C.2       1 RES1   0.0000
    31 N3       2.1272   4.8248   6.5050   N.pl3     1 RES1   0.0000
    32 H3A      1.5684   5.0800   7.1590   H         1 RES1   0.0000
    33 H3B      1.6868   4.8319   5.7277   H         1 RES1   0.0000
    34 O2      -4.1203  -5.7420   7.7073   O.co2     1 RES1   0.0000
    35 N1      -1.4891  -1.4891   7.7073   N.4       1 RES1   0.0000
    36 C3      -3.5223  -3.5223   7.7073   C.3       1 RES1   0.0000
    37 C4      -4.5535  -4.5535   7.7073   C.2       1 RES1   0.0000
    38 C1      -2.6005  -1.4228   6.8857   C.2       1 RES1   0.0000
    39 H1      -2.6786  -0.6775   6.3013   H         1 RES1   0.0000
    40 C2      -3.5947  -2.3662   6.8611   C.2       1 RES1   0.0000
    41 N3      -4.8248  -2.1272   6.5050   N.pl3     1 RES1   0.0000
    42 H3A     -5.0800  -1.5684   7.1590   H         1 RES1   0.0000
    43 H3B     -4.8319  -1.6868   5.7277   H         1 RES1   0.0000
    44 O2      -5.7420  -4.1203   7.7073   O.co2     1 RES1   0.0000
    45 C1      -1.4228  -2.6005   8.5290   C.2       1 RES1   0.0000
    46 H1      -0.6775  -2.6786   9.1134   H         1 RES1   0.0000
    47 C2      -2.3662  -3.5947   8.5536   C.2       1 RES1   0.0000
    48 N3      -2.1272  -4.8248   8.9097   N.pl3     1 RES1   0.0000
    49 H3A     -1.5684  -5.0800   8.2557   H         1 RES1   0.0000
    50 H3B     -1.6868  -4.8319   9.6870   H         1 RES1   0.0000
    51 C1      -2.6005  -1.4228   8.5290   C.2       1 RES1   0.0000
    52 H1      -2.6786  -0.6775   9.1134   H         1 RES1   0.0000
    53 C2      -3.5947  -2.3662   8.5536   C.2       1 RES1   0.0000
    54 N3      -4.8248  -2.1272   8.9097   N.pl3     1 RES1   0.0000
    55 H3A     -5.0800  -1.5684   8.2557   H         1 RES1   0.0000
    56 H3B     -4.8319  -1.6868   9.6870   H         1 RES1   0.0000
    57 C1      -1.4228  -2.6005   6.8857   C.2       1 RES1   0.0000
    58 H1      -0.6775  -2.6786   6.3013   H         1 RES1   0.0000
    59 C2      -2.3662  -3.5947   6.8611   C.2       1 RES1   0.0000
    60 N3      -2.1272  -4.8248   6.5050   N.pl3     1 RES1   0.0000
    61 H3A     -1.5684  -5.0800   7.1590   H         1 RES1   0.0000
    62 H3B     -1.6868  -4.8319   5.7277   H         1 RES1   0.0000
    63 Zr1     -5.2472   7.7074   7.7073   Zr        1 RES1   0.0000
    64 O3       0.0000   0.0000   5.3150   O.3       1 RES1   0.0000
    65 O2      -4.1203   5.7420   7.7073   O.co2     1 RES1   0.0000
    66 N1      -1.4891   1.4891   7.7073   N.4       1 RES1   0.0000
    67 C3      -3.5223   3.5223   7.7073   C.3       1 RES1   0.0000
    68 C4      -4.5535   4.5535   7.7073   C.2       1 RES1   0.0000
    69 C1      -2.6005   1.4228   8.5290   C.2       1 RES1   0.0000
    70 H1      -2.6786   0.6775   9.1134   H         1 RES1   0.0000
    71 C2      -3.5947   2.3662   8.5536   C.2       1 RES1   0.0000
    72 N3      -4.8248   2.1272   8.9097   N.pl3     1 RES1   0.0000
    73 H3A     -5.0800   1.5684   8.2557   H         1 RES1   0.0000
    74 H3B     -4.8319   1.6868   9.6870   H         1 RES1   0.0000
    75 O2      -5.7420   4.1203   7.7073   O.co2     1 RES1   0.0000
    76 C1      -1.4228   2.6005   6.8857   C.2       1 RES1   0.0000
    77 H1      -0.6775   2.6786   6.3013   H         1 RES1   0.0000
    78 C2      -2.3662   3.5947   6.8611   C.2       1 RES1   0.0000
    79 N3      -2.1272   4.8248   6.5050   N.pl3     1 RES1   0.0000
    80 H3A     -1.5684   5.0800   7.1590   H         1 RES1   0.0000
    81 H3B     -1.6868   4.8319   5.7277   H         1 RES1   0.0000
    82 C1      -2.6005   1.4228   6.8857   C.2       1 RES1   0.0000
    83 H1      -2.6786   0.6775   6.3013   H         1 RES1   0.0000
    84 C2      -3.5947   2.3662   6.8611   C.2       1 RES1   0.0000
    85 N3      -4.8248   2.1272   6.5050   N.pl3     1 RES1   0.0000
    86 H3A     -5.0800   1.5684   7.1590   H         1 RES1   0.0000
    87 H3B     -4.8319   1.6868   5.7277   H         1 RES1   0.0000
    88 C1      -1.4228   2.6005   8.5290   C.2       1 RES1   0.0000
    89 H1      -0.6775   2.6786   9.1134   H         1 RES1   0.0000
    90 C2      -2.3662   3.5947   8.5536   C.2       1 RES1   0.0000
    91 N3      -2.1272   4.8248   8.9097   N.pl3     1 RES1   0.0000
    92 H3A     -1.5684   5.0800   8.2557   H         1 RES1   0.0000
    93 H3B     -1.6868   4.8319   9.6870   H         1 RES1   0.0000
    94 O2       4.1203  -5.7420   7.7073   O.co2     1 RES1   0.0000
    95 N1       1.4891  -1.4891   7.7073   N.4       1 RES1   0.0000
    96 C3       3.5223  -3.5223   7.7073   C.3       1 RES1   0.0000
    97 C4       4.5535  -4.5535   7.7073   C.2       1 RES1   0.0000
    98 C1       2.6005  -1.4228   8.5290   C.2       1 RES1   0.0000
    99 H1       2.6786  -0.6775   9.1134   H         1 RES1   0.0000
   100 C2       3.5947  -2.3662   8.5536   C.2       1 RES1   0.0000
   101 N3       4.8248  -2.1272   8.9097   N.pl3     1 RES1   0.0000
   102 H3A      5.0800  -1.5684   8.2557   H         1 RES1   0.0000
   103 H3B      4.8319  -1.6868   9.6870   H         1 RES1   0.0000
   104 O2       5.7420  -4.1203   7.7073   O.co2     1 RES1   0.0000
   105 C1       1.4228  -2.6005   6.8857   C.2       1 RES1   0.0000
   106 H1       0.6775  -2.6786   6.3013   H         1 RES1   0.0000
   107 C2       2.3662  -3.5947   6.8611   C.2       1 RES1   0.0000
   108 N3       2.1272  -4.8248   6.5050   N.pl3     1 RES1   0.0000
   109 H3A      1.5684  -5.0800   7.1590   H         1 RES1   0.0000
   110 H3B      1.6868  -4.8319   5.7277   H         1 RES1   0.0000
   111 C1       2.6005  -1.4228   6.8857   C.2       1 RES1   0.0000
   112 H1       2.6786  -0.6775   6.3013   H         1 RES1   0.0000
   113 C2       3.5947  -2.3662   6.8611   C.2       1 RES1   0.0000
   114 N3       4.8248  -2.1272   6.5050   N.pl3     1 RES1   0.0000
   115 H3A      5.0800  -1.5684   7.1590   H         1 RES1   0.0000
   116 H3B      4.8319  -1.6868   5.7277   H         1 RES1   0.0000
   117 C1       1.4228  -2.6005   8.5290   C.2       1 RES1   0.0000
   118 H1       0.6775  -2.6786   9.1134   H         1 RES1   0.0000
   119 C2       2.3662  -3.5947   8.5536   C.2       1 RES1   0.0000
   120 N3       2.1272  -4.8248   8.9097   N.pl3     1 RES1   0.0000
   121 H3A      1.5684  -5.0800   8.2557   H         1 RES1   0.0000
   122 H3B      1.6868  -4.8319   9.6870   H         1 RES1   0.0000
   123 Ni1      0.0000  15.4147   7.7073   Ni        1 RES1   0.0000
   124 O1       6.4680   6.4680   6.4680   O.3       1 RES1   0.0000
   125 O2       4.1203   9.6727   7.7073   O.co2     1 RES1   0.0000
   126 N1       1.4891  13.9256   7.7073   N.4       1 RES1   0.0000
   127 C3       3.5223  11.8924   7.7073   C.3       1 RES1   0.0000
   128 C4       4.5535  10.8612   7.7073   C.2       1 RES1   0.0000
   129 C1       2.6005  13.9919   8.5290   C.2       1 RES1   0.0000
   130 H1       2.6786  14.7372   9.1134   H         1 RES1   0.0000
   131 C2       3.5947  13.0485   8.5536   C.2       1 RES1   0.0000
   132 N3       4.8248  13.2875   8.9097   N.pl3     1 RES1   0.0000
   133 H3A      5.0800  13.8463   8.2557   H         1 RES1   0.0000
   134 H3B      4.8319  13.7279   9.6870   H         1 RES1   0.0000
   135 O2       5.7420  11.2944   7.7073   O.co2     1 RES1   0.0000
   136 C1       1.4228  12.8142   6.8857   C.2       1 RES1   0.0000
   137 H1       0.6775  12.7361   6.3013   H         1 RES1   0.0000
   138 C2       2.3662  11.8200   6.8611   C.2       1 RES1   0.0000
   139 N3       2.1272  10.5899   6.5050   N.pl3     1 RES1   0.0000
   140 H3A      1.5684  10.3347   7.1590   H         1 RES1   0.0000
   141 H3B      1.6868  10.5828   5.7277   H         1 RES1   0.0000
   142 C1       2.6005  13.9919   6.8857   C.2       1 RES1   0.0000
   143 H1       2.6786  14.7372   6.3013   H         1 RES1   0.0000
   144 C2       3.5947  13.0485   6.8611   C.2       1 RES1   0.0000
   145 N3       4.8248  13.2875   6.5050   N.pl3     1 RES1   0.0000
   146 H3A      5.0800  13.8463   7.1590   H         1 RES1   0.0000
   147 H3B      4.8319  13.7279   5.7277   H         1 RES1   0.0000
   148 C1       1.4228  12.8142   8.5290   C.2       1 RES1   0.0000
   149 H1       0.6775  12.7361   9.1134   H         1 RES1   0.0000
   150 C2       2.3662  11.8200   8.5536   C.2       1 RES1   0.0000
   151 N3       2.1272  10.5899   8.9097   N.pl3     1 RES1   0.0000
   152 H3A      1.5684  10.3347   8.2557   H         1 RES1   0.0000
   153 H3B      1.6868  10.5828   9.6870   H         1 RES1   0.0000
   154 Zr1      7.7074   5.2472   7.7073   Zr        1 RES1   0.0000
   155 Ni1      7.7073   0.0000   0.0000   Ni        1 RES1   0.0000
   156 O3      10.0997   0.0000   0.0000   O.3       1 RES1   0.0000
   157 O1       8.9467   6.4680   8.9467   O.3       1 RES1   0.0000
   158 O2       7.7073   4.1203   5.7420   O.co2     1 RES1   0.0000
   159 N1       7.7073   1.4891   1.4891   N.4       1 RES1   0.0000
   160 C3       7.7073   3.5223   3.5223   C.3       1 RES1   0.0000
   161 C4       7.7073   4.5535   4.5535   C.2       1 RES1   0.0000
   162 C1       6.8857   2.6005   1.4228   C.2       1 RES1   0.0000
   163 H1       6.3013   2.6786   0.6775   H         1 RES1   0.0000
   164 C2       6.8611   3.5947   2.3662   C.2       1 RES1   0.0000
   165 N3       6.5050   4.8248   2.1272   N.pl3     1 RES1   0.0000
   166 H3A      7.1590   5.0800   1.5684   H         1 RES1   0.0000
   167 H3B      5.7277   4.8319   1.6868   H         1 RES1   0.0000
   168 O2       7.7073   5.7420   4.1203   O.co2     1 RES1   0.0000
   169 C1       8.5290   1.4228   2.6005   C.2       1 RES1   0.0000
   170 H1       9.1134   0.6775   2.6786   H         1 RES1   0.0000
   171 C2       8.5536   2.3662   3.5947   C.2       1 RES1   0.0000
   172 N3       8.9097   2.1272   4.8248   N.pl3     1 RES1   0.0000
   173 H3A      8.2557   1.5684   5.0800   H         1 RES1   0.0000
   174 H3B      9.6870   1.6868   4.8319   H         1 RES1   0.0000
   175 C1       8.5290   2.6005   1.4228   C.2       1 RES1   0.0000
   176 H1       9.1134   2.6786   0.6775   H         1 RES1   0.0000
   177 C2       8.5536   3.5947   2.3662   C.2       1 RES1   0.0000
   178 N3       8.9097   4.8248   2.1272   N.pl3     1 RES1   0.0000
   179 H3A      8.2557   5.0800   1.5684   H         1 RES1   0.0000
   180 H3B      9.6870   4.8319   1.6868   H         1 RES1   0.0000
   181 C1       6.8857   1.4228   2.6005   C.2       1 RES1   0.0000
   182 H1       6.3013   0.6775   2.6786   H         1 RES1   0.0000
   183 C2       6.8611   2.3662   3.5947   C.2       1 RES1   0.0000
   184 N3       6.5050   2.1272   4.8248   N.pl3     1 RES1   0.0000
   185 H3A      7.1590   1.5684   5.0800   H         1 RES1   0.0000
   186 H3B      5.7277   1.6868   4.8319   H         1 RES1   0.0000
   187 Zr1      7.7074  10.1675   7.7073   Zr        1 RES1   0.0000
   188 O1       8.9467   8.9467   6.4680   O.3       1 RES1   0.0000
   189 O2       7.7074  11.2944   9.6727   O.co2     1 RES1   0.0000
   190 N1       7.7074  13.9256  13.9256   N.4       1 RES1   0.0000
   191 C3       7.7074  11.8924  11.8924   C.3       1 RES1   0.0000
   192 C4       7.7074  10.8612  10.8612   C.2       1 RES1   0.0000
   193 C1       6.8857  12.8142  13.9919   C.2       1 RES1   0.0000
   194 H1       6.3013  12.7361  14.7372   H         1 RES1   0.0000
   195 C2       6.8611  11.8200  13.0485   C.2       1 RES1   0.0000
   196 N3       6.5050  10.5899  13.2875   N.pl3     1 RES1   0.0000
   197 H3A      7.1590  10.3347  13.8463   H         1 RES1   0.0000
   198 H3B      5.7277  10.5828  13.7279   H         1 RES1   0.0000
   199 O2       7.7074   9.6727  11.2944   O.co2     1 RES1   0.0000
   200 C1       8.5290  13.9919  12.8142   C.2       1 RES1   0.0000
   201 H1       9.1134  14.7372  12.7361   H         1 RES1   0.0000
   202 C2       8.5536  13.0485  11.8200   C.2       1 RES1   0.0000
   203 N3       8.9097  13.2875  10.5899   N.pl3     1 RES1   0.0000
   204 H3A      8.2557  13.8463  10.3347   H         1 RES1   0.0000
   205 H3B      9.6870  13.7279  10.5828   H         1 RES1   0.0000
   206 C1       8.5290  12.8142  13.9919   C.2       1 RES1   0.0000
   207 H1       9.1134  12.7361  14.7372   H         1 RES1   0.0000
   208 C2       8.5536  11.8200  13.0485   C.2       1 RES1   0.0000
   209 N3       8.9097  10.5899  13.2875   N.pl3     1 RES1   0.0000
   210 H3A      8.2557  10.3347  13.8463   H         1 RES1   0.0000
   211 H3B      9.6870  10.5828  13.7279   H         1 RES1   0.0000
   212 C1       6.8857  13.9919  12.8142   C.2       1 RES1   0.0000
   213 H1       6.3013  14.7372  12.7361   H         1 RES1   0.0000
   214 C2       6.8611  13.0485  11.8200   C.2       1 RES1   0.0000
   215 N3       6.5050  13.2875  10.5899   N.pl3     1 RES1   0.0000
   216 H3A      7.1590  13.8463  10.3347   H         1 RES1   0.0000
   217 H3B      5.7277  13.7279  10.5828   H         1 RES1   0.0000
   218 O2       7.7074  11.2944   5.7420   O.co2     1 RES1   0.0000
   219 N1       7.7074  13.9256   1.4891   N.4       1 RES1   0.0000
   220 C3       7.7074  11.8924   3.5223   C.3       1 RES1   0.0000
   221 C4       7.7074  10.8612   4.5535   C.2       1 RES1   0.0000
   222 C1       8.5290  12.8142   1.4228   C.2       1 RES1   0.0000
   223 H1       9.1134  12.7361   0.6775   H         1 RES1   0.0000
   224 C2       8.5536  11.8200   2.3662   C.2       1 RES1   0.0000
   225 N3       8.9097  10.5899   2.1272   N.pl3     1 RES1   0.0000
   226 H3A      8.2557  10.3347   1.5684   H         1 RES1   0.0000
   227 H3B      9.6870  10.5828   1.6868   H         1 RES1   0.0000
   228 O2       7.7074   9.6727   4.1203   O.co2     1 RES1   0.0000
   229 C1       6.8857  13.9919   2.6005   C.2       1 RES1   0.0000
   230 H1       6.3013  14.7372   2.6786   H         1 RES1   0.0000
   231 C2       6.8611  13.0485   3.5947   C.2       1 RES1   0.0000
   232 N3       6.5050  13.2875   4.8248   N.pl3     1 RES1   0.0000
   233 H3A      7.1590  13.8463   5.0800   H         1 RES1   0.0000
   234 H3B      5.7277  13.7279   4.8319   H         1 RES1   0.0000
   235 C1       6.8857  12.8142   1.4228   C.2       1 RES1   0.0000
   236 H1       6.3013  12.7361   0.6775   H         1 RES1   0.0000
   237 C2       6.8611  11.8200   2.3662   C.2       1 RES1   0.0000
   238 N3       6.5050  10.5899   2.1272   N.pl3     1 RES1   0.0000
   239 H3A      7.1590  10.3347   1.5684   H         1 RES1   0.0000
   240 H3B      5.7277  10.5828   1.6868   H         1 RES1   0.0000
   241 C1       8.5290  13.9919   2.6005   C.2       1 RES1   0.0000
   242 H1       9.1134  14.7372   2.6786   H         1 RES1   0.0000
   243 C2       8.5536  13.0485   3.5947   C.2       1 RES1   0.0000
   244 N3       8.9097  13.2875   4.8248   N.pl3     1 RES1   0.0000
   245 H3A      8.2557  13.8463   5.0800   H         1 RES1   0.0000
   246 H3B      9.6870  13.7279   4.8319   H         1 RES1   0.0000
   247 O2       7.7074   4.1203   9.6727   O.co2     1 RES1   0.0000
   248 N1       7.7074   1.4891  13.9256   N.4       1 RES1   0.0000
   249 C3       7.7074   3.5223  11.8924   C.3       1 RES1   0.0000
   250 C4       7.7074   4.5535  10.8612   C.2       1 RES1   0.0000
   251 C1       8.5290   2.6005  13.9919   C.2       1 RES1   0.0000
   252 H1       9.1134   2.6786  14.7372   H         1 RES1   0.0000
   253 C2       8.5536   3.5947  13.0485   C.2       1 RES1   0.0000
   254 N3       8.9097   4.8248  13.2875   N.pl3     1 RES1   0.0000
   255 H3A      8.2557   5.0800  13.8463   H         1 RES1   0.0000
   256 H3B      9.6870   4.8319  13.7279   H         1 RES1   0.0000
   257 O2       7.7074   5.7420  11.2944   O.co2     1 RES1   0.0000
   258 C1       6.8857   1.4228  12.8142   C.2       1 RES1   0.0000
   259 H1       6.3013   0.6775  12.7361   H         1 RES1   0.0000
   260 C2       6.8611   2.3662  11.8200   C.2       1 RES1   0.0000
   261 N3       6.5050   2.1272  10.5899   N.pl3     1 RES1   0.0000
   262 H3A      7.1590   1.5684  10.3347   H         1 RES1   0.0000
   263 H3B      5.7277   1.6868  10.5828   H         1 RES1   0.0000
   264 C1       6.8857   2.6005  13.9919   C.2       1 RES1   0.0000
   265 H1       6.3013   2.6786  14.7372   H         1 RES1   0.0000
   266 C2       6.8611   3.5947  13.0485   C.2       1 RES1   0.0000
   267 N3       6.5050   4.8248  13.2875   N.pl3     1 RES1   0.0000
   268 H3A      7.1590   5.0800  13.8463   H         1 RES1   0.0000
   269 H3B      5.7277   4.8319  13.7279   H         1 RES1   0.0000
   270 C1       8.5290   1.4228  12.8142   C.2       1 RES1   0.0000
   271 H1       9.1134   0.6775  12.7361   H         1 RES1   0.0000
   272 C2       8.5536   2.3662  11.8200   C.2       1 RES1   0.0000
   273 N3       8.9097   2.1272  10.5899   N.pl3     1 RES1   0.0000
   274 H3A      8.2557   1.5684  10.3347   H         1 RES1   0.0000
   275 H3B      9.6870   1.6868  10.5828   H         1 RES1   0.0000
   276 Zr1      7.7074   7.7073   5.2472   Zr        1 RES1   0.0000
   277 O2       5.7420   7.7073   4.1203   O.co2     1 RES1   0.0000
   278 N1       1.4891   7.7073   1.4891   N.4       1 RES1   0.0000
   279 C3       3.5223   7.7073   3.5223   C.3       1 RES1   0.0000
   280 C4       4.5535   7.7073   4.5535   C.2       1 RES1   0.0000
   281 C1       1.4228   6.8857   2.6005   C.2       1 RES1   0.0000
   282 H1       0.6775   6.3013   2.6786   H         1 RES1   0.0000
   283 C2       2.3662   6.8611   3.5947   C.2       1 RES1   0.0000
   284 N3       2.1272   6.5050   4.8248   N.pl3     1 RES1   0.0000
   285 H3A      1.5684   7.1590   5.0800   H         1 RES1   0.0000
   286 H3B      1.6868   5.7277   4.8319   H         1 RES1   0.0000
   287 O2       4.1203   7.7073   5.7420   O.co2     1 RES1   0.0000
   288 C1       2.6005   8.5290   1.4228   C.2       1 RES1   0.0000
   289 H1       2.6786   9.1134   0.6775   H         1 RES1   0.0000
   290 C2       3.5947   8.5536   2.3662   C.2       1 RES1   0.0000
   291 N3       4.8248   8.9097   2.1272   N.pl3     1 RES1   0.0000
   292 H3A      5.0800   8.2557   1.5684   H         1 RES1   0.0000
   293 H3B      4.8319   9.6870   1.6868   H         1 RES1   0.0000
   294 C1       1.4228   8.5290   2.6005   C.2       1 RES1   0.0000
   295 H1       0.6775   9.1134   2.6786   H         1 RES1   0.0000
   296 C2       2.3662   8.5536   3.5947   C.2       1 RES1   0.0000
   297 N3       2.1272   8.9097   4.8248   N.pl3     1 RES1   0.0000
   298 H3A      1.5684   8.2557   5.0800   H         1 RES1   0.0000
   299 H3B      1.6868   9.6870   4.8319   H         1 RES1   0.0000
   300 C1       2.6005   6.8857   1.4228   C.2       1 RES1   0.0000
   301 H1       2.6786   6.3013   0.6775   H         1 RES1   0.0000
   302 C2       3.5947   6.8611   2.3662   C.2       1 RES1   0.0000
   303 N3       4.8248   6.5050   2.1272   N.pl3     1 RES1   0.0000
   304 H3A      5.0800   7.1590   1.5684   H         1 RES1   0.0000
   305 H3B      4.8319   5.7277   1.6868   H         1 RES1   0.0000
   306 Zr1      7.7074   7.7074  10.1675   Zr        1 RES1   0.0000
   307 O2       9.6727   7.7074  11.2944   O.co2     1 RES1   0.0000
   308 N1      13.9256   7.7074  13.9256   N.4       1 RES1   0.0000
   309 C3      11.8924   7.7074  11.8924   C.3       1 RES1   0.0000
   310 C4      10.8612   7.7074  10.8612   C.2       1 RES1   0.0000
   311 C1      13.9919   6.8857  12.8142   C.2       1 RES1   0.0000
   312 H1      14.7372   6.3013  12.7361   H         1 RES1   0.0000
   313 C2      13.0485   6.8611  11.8200   C.2       1 RES1   0.0000
   314 N3      13.2875   6.5050  10.5899   N.pl3     1 RES1   0.0000
   315 H3A     13.8463   7.1590  10.3347   H         1 RES1   0.0000
   316 H3B     13.7279   5.7277  10.5828   H         1 RES1   0.0000
   317 O2      11.2944   7.7074   9.6727   O.co2     1 RES1   0.0000
   318 C1      12.8142   8.5290  13.9919   C.2       1 RES1   0.0000
   319 H1      12.7361   9.1134  14.7372   H         1 RES1   0.0000
   320 C2      11.8200   8.5536  13.0485   C.2       1 RES1   0.0000
   321 N3      10.5899   8.9097  13.2875   N.pl3     1 RES1   0.0000
   322 H3A     10.3347   8.2557  13.8463   H         1 RES1   0.0000
   323 H3B     10.5828   9.6870  13.7279   H         1 RES1   0.0000
   324 C1      13.9919   8.5290  12.8142   C.2       1 RES1   0.0000
   325 H1      14.7372   9.1134  12.7361   H         1 RES1   0.0000
   326 C2      13.0485   8.5536  11.8200   C.2       1 RES1   0.0000
   327 N3      13.2875   8.9097  10.5899   N.pl3     1 RES1   0.0000
   328 H3A     13.8463   8.2557  10.3347   H         1 RES1   0.0000
   329 H3B     13.7279   9.6870  10.5828   H         1 RES1   0.0000
   330 C1      12.8142   6.8857  13.9919   C.2       1 RES1   0.0000
   331 H1      12.7361   6.3013  14.7372   H         1 RES1   0.0000
   332 C2      11.8200   6.8611  13.0485   C.2       1 RES1   0.0000
   333 N3      10.5899   6.5050  13.2875   N.pl3     1 RES1   0.0000
   334 H3A     10.3347   7.1590  13.8463   H         1 RES1   0.0000
   335 H3B     10.5828   5.7277  13.7279   H         1 RES1   0.0000
   336 O2       5.7420   7.7074  11.2944   O.co2     1 RES1   0.0000
   337 N1       1.4891   7.7074  13.9256   N.4       1 RES1   0.0000
   338 C3       3.5223   7.7074  11.8924   C.3       1 RES1   0.0000
   339 C4       4.5535   7.7074  10.8612   C.2       1 RES1   0.0000
   340 C1       1.4228   8.5290  12.8142   C.2       1 RES1   0.0000
   341 H1       0.6775   9.1134  12.7361   H         1 RES1   0.0000
   342 C2       2.3662   8.5536  11.8200   C.2       1 RES1   0.0000
   343 N3       2.1272   8.9097  10.5899   N.pl3     1 RES1   0.0000
   344 H3A      1.5684   8.2557  10.3347   H         1 RES1   0.0000
   345 H3B      1.6868   9.6870  10.5828   H         1 RES1   0.0000
   346 O2       4.1203   7.7074   9.6727   O.co2     1 RES1   0.0000
   347 C1       2.6005   6.8857  13.9919   C.2       1 RES1   0.0000
   348 H1       2.6786   6.3013  14.7372   H         1 RES1   0.0000
   349 C2       3.5947   6.8611  13.0485   C.2       1 RES1   0.0000
   350 N3       4.8248   6.5050  13.2875   N.pl3     1 RES1   0.0000
   351 H3A      5.0800   7.1590  13.8463   H         1 RES1   0.0000
   352 H3B      4.8319   5.7277  13.7279   H         1 RES1   0.0000
   353 C1       1.4228   6.8857  12.8142   C.2       1 RES1   0.0000
   354 H1       0.6775   6.3013  12.7361   H         1 RES1   0.0000
   355 C2       2.3662   6.8611  11.8200   C.2       1 RES1   0.0000
   356 N3       2.1272   6.5050  10.5899   N.pl3     1 RES1   0.0000
   357 H3A      1.5684   7.1590  10.3347   H         1 RES1   0.0000
   358 H3B      1.6868   5.7277  10.5828   H         1 RES1   0.0000
   359 C1       2.6005   8.5290  13.9919   C.2       1 RES1   0.0000
   360 H1       2.6786   9.1134  14.7372   H         1 RES1   0.0000
   361 C2       3.5947   8.5536  13.0485   C.2       1 RES1   0.0000
   362 N3       4.8248   8.9097  13.2875   N.pl3     1 RES1   0.0000
   363 H3A      5.0800   8.2557  13.8463   H         1 RES1   0.0000
   364 H3B      4.8319   9.6870  13.7279   H         1 RES1   0.0000
   365 O1       8.9467   6.4680   6.4680   O.3       1 RES1   0.0000
   366 O1       6.4680   8.9467   6.4680   O.3       1 RES1   0.0000
   367 O1      -6.4680   8.9467   8.9467   O.3       1 RES1   0.0000
   368 O1       6.4680   6.4680   8.9467   O.3       1 RES1   0.0000
   369 O3       0.0000  15.4147   5.3150   O.3       1 RES1   0.0000
   370 O3       0.0000  15.4147  10.0997   O.3       1 RES1   0.0000
   371 O3       5.3150   0.0000   0.0000   O.3       1 RES1   0.0000
   372 Zr1      5.2472  -7.7073   7.7073   Zr        1 RES1   0.0000
   373 Zr1     -5.2472  -7.7073   7.7073   Zr        1 RES1   0.0000
   374 Zr1     10.1675   7.7074   7.7073   Zr        1 RES1   0.0000
   375 Zr1     -7.7073   5.2472   7.7073   Zr        1 RES1   0.0000
   376 Zr1     -7.7073  -5.2472   7.7073   Zr        1 RES1   0.0000
   377 Zr1     -7.7073  10.1675   7.7073   Zr        1 RES1   0.0000
   378 Zr1      7.7074  -5.2472   7.7073   Zr        1 RES1   0.0000
   379 Zr1     -7.7073   7.7074  10.1675   Zr        1 RES1   0.0000
   380 Ni1      7.7074   0.0000  15.4147   Ni        1 RES1   0.0000
   381 Ni1      7.7074  15.4147   0.0000   Ni        1 RES1   0.0000
   382 Ni1      7.7074  15.4147  15.4147   Ni        1 RES1   0.0000
   383 Ni1      0.0000   7.7073   0.0000   Ni        1 RES1   0.0000
   384 Ni1      0.0000   7.7074  15.4147   Ni        1 RES1   0.0000
   385 Ni1     15.4147   7.7074  15.4147   Ni        1 RES1   0.0000
   386 O1      -6.4680   6.4680   8.9467   O.3       1 RES1   0.0000
   387 O1      -6.4680   8.9467   6.4680   O.3       1 RES1   0.0000
   388 O1      -6.4680   6.4680   6.4680   O.3       1 RES1   0.0000
   389 O1       8.9467   8.9467   8.9467   O.3       1 RES1   0.0000
   390 O2      -4.1203   9.6727   7.7073   O.3       1 RES1   0.0000
   391 O2       9.6727   7.7073   4.1203   O.3       1 RES1   0.0000
   392 O2       9.6727  11.2944   7.7073   O.3       1 RES1   0.0000
   393 O2       9.6727   4.1203   7.7073   O.3       1 RES1   0.0000
   394 O2      -4.1203   7.7073   5.7420   O.3       1 RES1   0.0000
   395 O2      -4.1203   7.7074   9.6727   O.3       1 RES1   0.0000
   396 N1       1.4891  16.9038   7.7073   N.3       1 RES1   0.0000
   397 N1      -1.4891  13.9256   7.7073   N.3       1 RES1   0.0000
   398 N1      -1.4891  16.9038   7.7073   N.3       1 RES1   0.0000
   399 N1       7.7073  -1.4891  -1.4891   N.3       1 RES1   0.0000
   400 N1       7.7073  -1.4891   1.4891   N.3       1 RES1   0.0000
   401 N1       7.7073   1.4891  -1.4891   N.3       1 RES1   0.0000
   402 H2A?     4.3627   2.1629   5.2209   H         2 RES2   0.0000
   403 H2B?     5.1566   1.5876   6.3376   H         3 RES3   0.0000
   404 H2C?     5.1160   3.0593   6.1359   H         4 RES4   0.0000
   405 N2?      4.6398   2.2814   6.0734   N.3       5 RES5   0.0000
   406 Zr2?     5.2765   7.7073   7.2233   Zr        6 RES6   0.0000
@<TRIPOS>BOND
     1     1     4    1
     2     1     5    1
     3     1   124    1
     4     1   125    1
     5     1   287    1
     6     1   346    1
     7     1   366    1
     8     1   368    1
     9     2     3    1
    10     2     6    1
    11     2    35    1
    12     2    64    1
    13     2    66    1
    14     2    95    1
    15     4   187    1
    16     4   306    1
    17     5     8   un
    18     6     9    1
    19     6    16    1
    20     6    22    1
    21     6    28    1
    22     7     8    1
    23     7    11    1
    24     7    18    1
    25     7    24    1
    26     7    30    1
    27     8    15   un
    28     9    10    1
    29     9    11    2
    30    11    12    1
    31    12    13    1
    32    12    14    1
    33    15   154    1
    34    16    17    1
    35    16    18    2
    36    18    19    1
    37    19    20    1
    38    19    21    1
    39    22    23    1
    40    22    24    2
    41    24    25    1
    42    25    26    1
    43    25    27    1
    44    28    29    1
    45    28    30    2
    46    30    31    1
    47    31    32    1
    48    31    33    1
    49    34    37   un
    50    34   373    1
    51    35    38    1
    52    35    45    1
    53    35    51    1
    54    35    57    1
    55    36    37    1
    56    36    40    1
    57    36    47    1
    58    36    53    1
    59    36    59    1
    60    37    44   un
    61    38    39    1
    62    38    40    2
    63    40    41    1
    64    41    42    1
    65    41    43    1
    66    44   376    1
    67    45    46    1
    68    45    47    2
    69    47    48    1
    70    48    49    1
    71    48    50    1
    72    51    52    1
    73    51    53    2
    74    53    54    1
    75    54    55    1
    76    54    56    1
    77    57    58    1
    78    57    59    2
    79    59    60    1
    80    60    61    1
    81    60    62    1
    82    63    65    1
    83    63   367    1
    84    63   386    1
    85    63   387    1
    86    63   388    1
    87    63   390    1
    88    63   394    1
    89    63   395    1
    90    65    68   un
    91    66    69    1
    92    66    76    1
    93    66    82    1
    94    66    88    1
    95    67    68    1
    96    67    71    1
    97    67    78    1
    98    67    84    1
    99    67    90    1
   100    68    75   un
   101    69    70    1
   102    69    71    2
   103    71    72    1
   104    72    73    1
   105    72    74    1
   106    75   375    1
   107    76    77    1
   108    76    78    2
   109    78    79    1
   110    79    80    1
   111    79    81    1
   112    82    83    1
   113    82    84    2
   114    84    85    1
   115    85    86    1
   116    85    87    1
   117    88    89    1
   118    88    90    2
   119    90    91    1
   120    91    92    1
   121    91    93    1
   122    94    97   un
   123    94   372    1
   124    95    98    1
   125    95   105    1
   126    95   111    1
   127    95   117    1
   128    96    97    1
   129    96   100    1
   130    96   107    1
   131    96   113    1
   132    96   119    1
   133    97   104   un
   134    98    99    1
   135    98   100    2
   136   100   101    1
   137   101   102    1
   138   101   103    1
   139   104   378    1
   140   105   106    1
   141   105   107    2
   142   107   108    1
   143   108   109    1
   144   108   110    1
   145   111   112    1
   146   111   113    2
   147   113   114    1
   148   114   115    1
   149   114   116    1
   150   117   118    1
   151   117   119    2
   152   119   120    1
   153   120   121    1
   154   120   122    1
   155   123   126    1
   156   123   369    1
   157   123   370    1
   158   123   396    1
   159   123   397    1
   160   123   398    1
   161   124   154    1
   162   124   276    1
   163   125   128   un
   164   126   129    1
   165   126   136    1
   166   126   142    1
   167   126   148    1
   168   127   128    1
   169   127   131    1
   170   127   138    1
   171   127   144    1
   172   127   150    1
   173   128   135   un
   174   129   130    1
   175   129   131    2
   176   131   132    1
   177   132   133    1
   178   132   134    1
   179   135   187    1
   180   136   137    1
   181   136   138    2
   182   138   139    1
   183   139   140    1
   184   139   141    1
   185   142   143    1
   186   142   144    2
   187   144   145    1
   188   145   146    1
   189   145   147    1
   190   148   149    1
   191   148   150    2
   192   150   151    1
   193   151   152    1
   194   151   153    1
   195   154   157    1
   196   154   158    1
   197   154   247    1
   198   154   365    1
   199   154   368    1
   200   154   393    1
   201   155   156    1
   202   155   159    1
   203   155   371    1
   204   155   399    1
   205   155   400    1
   206   155   401    1
   207   157   306    1
   208   157   374    1
   209   158   161   un
   210   159   162    1
   211   159   169    1
   212   159   175    1
   213   159   181    1
   214   160   161    1
   215   160   164    1
   216   160   171    1
   217   160   177    1
   218   160   183    1
   219   161   168   un
   220   162   163    1
   221   162   164    2
   222   164   165    1
   223   165   166    1
   224   165   167    1
   225   168   276    1
   226   169   170    1
   227   169   171    2
   228   171   172    1
   229   172   173    1
   230   172   174    1
   231   175   176    1
   232   175   177    2
   233   177   178    1
   234   178   179    1
   235   178   180    1
   236   181   182    1
   237   181   183    2
   238   183   184    1
   239   184   185    1
   240   184   186    1
   241   187   188    1
   242   187   189    1
   243   187   218    1
   244   187   366    1
   245   187   389    1
   246   187   392    1
   247   188   276    1
   248   188   374    1
   249   189   192   un
   250   190   193    1
   251   190   200    1
   252   190   206    1
   253   190   212    1
   254   190   382    1
   255   191   192    1
   256   191   195    1
   257   191   202    1
   258   191   208    1
   259   191   214    1
   260   192   199   un
   261   193   194    1
   262   193   195    2
   263   195   196    1
   264   196   197    1
   265   196   198    1
   266   199   306    1
   267   200   201    1
   268   200   202    2
   269   202   203    1
   270   203   204    1
   271   203   205    1
   272   206   207    1
   273   206   208    2
   274   208   209    1
   275   209   210    1
   276   209   211    1
   277   212   213    1
   278   212   214    2
   279   214   215    1
   280   215   216    1
   281   215   217    1
   282   218   221   un
   283   219   222    1
   284   219   229    1
   285   219   235    1
   286   219   241    1
   287   219   381    1
   288   220   221    1
   289   220   224    1
   290   220   231    1
   291   220   237    1
   292   220   243    1
   293   221   228   un
   294   222   223    1
   295   222   224    2
   296   224   225    1
   297   225   226    1
   298   225   227    1
   299   228   276    1
   300   229   230    1
   301   229   231    2
   302   231   232    1
   303   232   233    1
   304   232   234    1
   305   235   236    1
   306   235   237    2
   307   237   238    1
   308   238   239    1
   309   238   240    1
   310   241   242    1
   311   241   243    2
   312   243   244    1
   313   244   245    1
   314   244   246    1
   315   247   250   un
   316   248   251    1
   317   248   258    1
   318   248   264    1
   319   248   270    1
   320   248   380    1
   321   249   250    1
   322   249   253    1
   323   249   260    1
   324   249   266    1
   325   249   272    1
   326   250   257   un
   327   251   252    1
   328   251   253    2
   329   253   254    1
   330   254   255    1
   331   254   256    1
   332   257   306    1
   333   258   259    1
   334   258   260    2
   335   260   261    1
   336   261   262    1
   337   261   263    1
   338   264   265    1
   339   264   266    2
   340   266   267    1
   341   267   268    1
   342   267   269    1
   343   270   271    1
   344   270   272    2
   345   272   273    1
   346   273   274    1
   347   273   275    1
   348   276   277    1
   349   276   365    1
   350   276   366    1
   351   276   391    1
   352   277   280   un
   353   278   281    1
   354   278   288    1
   355   278   294    1
   356   278   300    1
   357   278   383    1
   358   279   280    1
   359   279   283    1
   360   279   290    1
   361   279   296    1
   362   279   302    1
   363   280   287   un
   364   281   282    1
   365   281   283    2
   366   283   284    1
   367   284   285    1
   368   284   286    1
   369   288   289    1
   370   288   290    2
   371   290   291    1
   372   291   292    1
   373   291   293    1
   374   294   295    1
   375   294   296    2
   376   296   297    1
   377   297   298    1
   378   297   299    1
   379   300   301    1
   380   300   302    2
   381   302   303    1
   382   303   304    1
   383   303   305    1
   384   306   307    1
   385   306   336    1
   386   306   368    1
   387   306   389    1
   388   307   310   un
   389   308   311    1
   390   308   318    1
   391   308   324    1
   392   308   330    1
   393   308   385    1
   394   309   310    1
   395   309   313    1
   396   309   320    1
   397   309   326    1
   398   309   332    1
   399   310   317   un
   400   311   312    1
   401   311   313    2
   402   313   314    1
   403   314   315    1
   404   314   316    1
   405   317   374    1
   406   318   319    1
   407   318   320    2
   408   320   321    1
   409   321   322    1
   410   321   323    1
   411   324   325    1
   412   324   326    2
   413   326   327    1
   414   327   328    1
   415   327   329    1
   416   330   331    1
   417   330   332    2
   418   332   333    1
   419   333   334    1
   420   333   335    1
   421   336   339   un
   422   337   340    1
   423   337   347    1
   424   337   353    1
   425   337   359    1
   426   337   384    1
   427   338   339    1
   428   338   342    1
   429   338   349    1
   430   338   355    1
   431   338   361    1
   432   339   346   un
   433   340   341    1
   434   340   342    2
   435   342   343    1
   436   343   344    1
   437   343   345    1
   438   347   348    1
   439   347   349    2
   440   349   350    1
   441   350   351    1
   442   350   352    1
   443   353   354    1
   444   353   355    2
   445   355   356    1
   446   356   357    1
   447   356   358    1
   448   359   360    1
   449   359   361    2
   450   361   362    1
   451   362   363    1
   452   362   364    1
   453   365   374    1
   454   367   377    1
   455   367   379    1
   456   374   389    1
   457   375   386    1
   458   375   388    1
   459   377   387    1
   460   379   386    1
@<TRIPOS>SUBSTRUCTURE
     1 RES1        1 GROUP             0 ****  ****    0  
     2 RES2      402 GROUP             0 ****  ****    0  
     3 RES3      403 GROUP             0 ****  ****    0  
     4 RES4      404 GROUP             0 ****  ****    0  
     5 RES5      405 GROUP             0 ****  ****    0  
     6 RES6      406 GROUP             0 ****  ****    0  
@<TRIPOS>CRYSIN
   15.4147   15.4147   15.4147   90.0000   90.0000   90.0000   221     1
