####################################################################### 
# 
# This file contains crystal structure data downloaded from the 
# Cambridge Structural Database (CSD) hosted by the Cambridge 
# Crystallographic Data Centre (CCDC).
# 
# Full information about CCDC data access policies and citation 
# guidelines are available at http://www.ccdc.cam.ac.uk/access/V1 
# 
# Audit and citation data items may have been added by the CCDC. 
# Please retain this information to preserve the provenance of 
# this file and to allow appropriate attribution of the data. 
# 
#######################################################################
@<TRIPOS>MOLECULE
XEXLET01
    45    51     1     0     0
SMALL
NO_CHARGES
****
Generated from the CSD

@<TRIPOS>ATOM
     1 Cd1     -1.8639  13.6140   8.8297   Cd        1 RES1   0.0000
     2 O1      -0.7268  12.4594   7.3230   O.co2     1 RES1   0.0000
     3 O2       1.4220  12.8947   7.6023   O.co2     1 RES1   0.0000
     4 O3       0.8695  10.6719   9.7955   O.co2     1 RES1   0.0000
     5 O4       2.8930  11.5903   9.9464   O.co2     1 RES1   0.0000
     6 O5       4.2618   5.9413   5.7972   O.2       1 RES1   0.0000
     7 O6       0.9994   7.2991   3.0160   O.2       1 RES1   0.0000
     8 N1       2.5567   6.5813   4.4703   N.am      1 RES1   0.0000
     9 N2       2.9496   2.9990   2.2704   N.2       1 RES1   0.0000
    10 C1       0.4823  12.1584   7.2573   C.2       1 RES1   0.0000
    11 C2       0.7876  10.8437   6.5748   C.2       1 RES1   0.0000
    12 C3       0.1216  10.6395   5.4101   C.2       1 RES1   0.0000
    13 H3      -0.5361  11.2453   5.1569   H         1 RES1   0.0000
    14 C4       0.3925   9.5395   4.5756   C.2       1 RES1   0.0000
    15 H4      -0.0847   9.4217   3.7856   H         1 RES1   0.0000
    16 C5       1.3577   8.6502   4.9321   C.2       1 RES1   0.0000
    17 C6       2.0737   8.8152   6.1231   C.2       1 RES1   0.0000
    18 C7       3.0783   7.8864   6.4694   C.2       1 RES1   0.0000
    19 C8       3.7788   8.0394   7.6179   C.2       1 RES1   0.0000
    20 H8       4.4808   7.4615   7.8123   H         1 RES1   0.0000
    21 C9       3.4536   9.0618   8.5172   C.2       1 RES1   0.0000
    22 H9       3.9238   9.1359   9.3152   H         1 RES1   0.0000
    23 C10      2.4556   9.9523   8.2357   C.2       1 RES1   0.0000
    24 C11      1.7664   9.9020   7.0062   C.2       1 RES1   0.0000
    25 C12      2.0406  10.8244   9.4044   C.2       1 RES1   0.0000
    26 C13      3.3751   6.7401   5.5863   C.2       1 RES1   0.0000
    27 C14      1.5950   7.5004   4.0388   C.2       1 RES1   0.0000
    28 C15      2.6959   5.3548   3.6965   C.2       1 RES1   0.0000
    29 C16      3.6034   5.2402   2.7324   C.2       1 RES1   0.0000
    30 H16      4.1697   5.9515   2.5359   H         1 RES1   0.0000
    31 C17      3.7019   4.0449   2.0133   C.2       1 RES1   0.0000
    32 H17      4.3253   3.9887   1.3267   H         1 RES1   0.0000
    33 C18      2.0262   3.1540   3.2185   C.2       1 RES1   0.0000
    34 H18      1.4542   2.4458   3.4028   H         1 RES1   0.0000
    35 C19      1.8815   4.3226   3.9355   C.2       1 RES1   0.0000
    36 H19      1.2197   4.3909   4.5857   H         1 RES1   0.0000
    37 Cd1      3.1778  13.6140   8.8297   Cd        1 RES1   0.0000
    38 Cd1      3.2883   0.9675   1.2977   Cd        1 RES1   0.0000
    39 Cd1     -0.3290  11.6791  11.4252   Cd        1 RES1   0.0000
    40 Cd1      4.7127  11.6791  11.4252   Cd        1 RES1   0.0000
    41 O2      -3.6197  12.8947   7.6023   O.3       1 RES1   0.0000
    42 O3      -3.0623  14.6212  10.4594   O.3       1 RES1   0.0000
    43 O4      -2.1487  11.5903   9.9464   O.3       1 RES1   0.0000
    44 O4      -0.0442  13.7028  10.3085   O.3       1 RES1   0.0000
    45 N2      -1.5252  15.6456   7.8571   N.3       1 RES1   0.0000
@<TRIPOS>BOND
     1     1     2    1
     2     1    41    1
     3     1    42    1
     4     1    43    1
     5     1    44    1
     6     1    45    1
     7     2    10   un
     8     3    10   un
     9     3    37    1
    10     4    25   un
    11     4    39    1
    12     5    25   un
    13     5    37    1
    14     5    40    1
    15     6    26    2
    16     7    27    2
    17     8    26   am
    18     8    27   am
    19     8    28    1
    20     9    31    2
    21     9    33    1
    22     9    38    1
    23    10    11    1
    24    11    12    2
    25    11    24    1
    26    12    13    1
    27    12    14    1
    28    14    15    1
    29    14    16    2
    30    16    17    1
    31    16    27    1
    32    17    18    1
    33    17    24    2
    34    18    19    2
    35    18    26    1
    36    19    20    1
    37    19    21    1
    38    21    22    1
    39    21    23    2
    40    23    24    1
    41    23    25    1
    42    28    29    2
    43    28    35    1
    44    29    30    1
    45    29    31    1
    46    31    32    1
    47    33    34    1
    48    33    35    2
    49    35    36    1
    50    39    43    1
    51    39    44    1
@<TRIPOS>SUBSTRUCTURE
     1 RES1        1 GROUP             0 ****  ****    0  
@<TRIPOS>CRYSIN
    5.0417   25.2931   20.3733   90.0000   96.1790   90.0000   231     1
