####################################################################### 
# 
# This file contains crystal structure data downloaded from the 
# Cambridge Structural Database (CSD) hosted by the Cambridge 
# Crystallographic Data Centre (CCDC).
# 
# Full information about CCDC data access policies and citation 
# guidelines are available at http://www.ccdc.cam.ac.uk/access/V1 
# 
# Audit and citation data items may have been added by the CCDC. 
# Please retain this information to preserve the provenance of 
# this file and to allow appropriate attribution of the data. 
# 
#######################################################################
@<TRIPOS>MOLECULE
KUBHAU
    93    95     6     0     0
SMALL
NO_CHARGES
****
Generated from the CSD

@<TRIPOS>ATOM
     1 Cu1      2.0653   5.2305   2.9389   Cu        1 RES1   0.0000
     2 O3      11.6674   2.8542  10.5407   O.co2     1 RES1   0.0000
     3 O2       2.8209   4.9781   4.7284   O.co2     1 RES1   0.0000
     4 O6       6.1050   2.5147   4.8801   O.3       1 RES1   0.0000
     5 H6       5.5330   2.6207   4.3027   H         1 RES1   0.0000
     6 O5       9.7921   2.0002   9.0396   O.3       1 RES1   0.0000
     7 H5      10.3757   1.9642   9.6149   H         1 RES1   0.0000
     8 O4      12.9687   4.5215   9.8647   O.co2     1 RES1   0.0000
     9 O1       3.9894   3.3573   3.7811   O.co2     1 RES1   0.0000
    10 N3       0.5255   3.9410   3.4350   N.2       1 RES1   0.0000
    11 N1       3.8085   6.1919   2.4477   N.2       1 RES1   0.0000
    12 N4      -3.9302  -1.0999   5.6865   N.2       1 RES1   0.0000
    13 C17      9.3874   4.4077   6.3272   C.2       1 RES1   0.0000
    14 C13     12.0190   3.7745   9.6940   C.2       1 RES1   0.0000
    15 C18      9.1243   3.3095   7.2060   C.2       1 RES1   0.0000
    16 C14     11.0976   3.9641   8.5065   C.2       1 RES1   0.0000
    17 C39     -2.3341   1.0174   4.7651   C.2       1 RES1   0.0000
    18 C1       3.7410   4.0960   4.7482   C.2       1 RES1   0.0000
    19 C2       4.5610   3.9889   6.0035   C.2       1 RES1   0.0000
    20 C5       6.1589   3.8025   8.2976   C.2       1 RES1   0.0000
    21 C40     -2.3151   0.6118   6.0881   C.2       1 RES1   0.0000
    22 H40     -1.7615   1.0429   6.6986   H         1 RES1   0.0000
    23 C7       5.7555   3.2007   5.9941   C.2       1 RES1   0.0000
    24 C19     10.0080   3.0836   8.2430   C.2       1 RES1   0.0000
    25 C6       6.5873   3.1561   7.1025   C.2       1 RES1   0.0000
    26 C12      7.9164   2.4190   7.0047   C.3       1 RES1   0.0000
    27 H12A     7.9335   1.7143   7.6694   H         1 RES1   0.0000
    28 H12B     7.9789   2.0022   6.1305   H         1 RES1   0.0000
    29 C29      7.5291   8.2036   1.7201   C.2       1 RES1   0.0000
    30 C36     -1.3989   2.0711   4.2777   C.2       1 RES1   0.0000
    31 N2       9.9375   9.6003   1.2816   N.2       1 RES1   0.0000
    32 C16     10.4496   5.2998   6.6057   C.2       1 RES1   0.0000
    33 C4       4.9424   4.5314   8.3258   C.2       1 RES1   0.0000
    34 C26      6.2485   7.4880   1.9723   C.2       1 RES1   0.0000
    35 C3       4.1768   4.6336   7.1345   C.2       1 RES1   0.0000
    36 H3       3.4020   5.1476   7.1299   H         1 RES1   0.0000
    37 C43     -3.2302   0.3611   3.9277   C.2       1 RES1   0.0000
    38 H43     -3.3192   0.6256   3.0405   H         1 RES1   0.0000
    39 C42     -3.9852  -0.6810   4.4188   C.2       1 RES1   0.0000
    40 H42     -4.5642  -1.1161   3.8365   H         1 RES1   0.0000
    41 C15     11.2814   5.0508   7.7142   C.2       1 RES1   0.0000
    42 H15     11.9711   5.6444   7.9079   H         1 RES1   0.0000
    43 C11      6.9051   3.7547   9.5208   C.2       1 RES1   0.0000
    44 H11      7.7106   3.2910   9.5428   H         1 RES1   0.0000
    45 C33      8.6047   7.6232   1.1047   C.2       1 RES1   0.0000
    46 H33      8.5518   6.7424   0.8080   H         1 RES1   0.0000
    47 C23      8.6104   4.6517   5.1509   C.2       1 RES1   0.0000
    48 H23      7.9172   4.0722   4.9303   H         1 RES1   0.0000
    49 C41     -3.1086  -0.4221   6.4984   C.2       1 RES1   0.0000
    50 H41     -3.0757  -0.6704   7.3935   H         1 RES1   0.0000
    51 C28      4.7358   5.6692   1.6561   C.2       1 RES1   0.0000
    52 H28      4.5623   4.8504   1.2504   H         1 RES1   0.0000
    53 C34      0.0623   3.9163   4.6767   C.2       1 RES1   0.0000
    54 H34      0.3902   4.5451   5.2779   H         1 RES1   0.0000
    55 C35     -0.8714   3.0193   5.1302   C.2       1 RES1   0.0000
    56 H35     -1.1501   3.0501   6.0163   H         1 RES1   0.0000
    57 C27      5.9457   6.2842   1.4039   C.2       1 RES1   0.0000
    58 H27      6.5617   5.8741   0.8407   H         1 RES1   0.0000
    59 C20     10.6763   6.3980   5.7494   C.2       1 RES1   0.0000
    60 H20     11.3715   6.9857   5.9374   H         1 RES1   0.0000
    61 C22      8.8714   5.7219   4.3549   C.2       1 RES1   0.0000
    62 H22      8.3526   5.8591   3.5947   H         1 RES1   0.0000
    63 C32      9.7673   8.3405   0.9222   C.2       1 RES1   0.0000
    64 H32     10.4829   7.9078   0.5156   H         1 RES1   0.0000
    65 C10      6.4702   4.3648  10.6350   C.2       1 RES1   0.0000
    66 H10      6.9813   4.3151  11.4109   H         1 RES1   0.0000
    67 C25      5.2990   8.0074   2.8173   C.2       1 RES1   0.0000
    68 H25      5.4594   8.8146   3.2505   H         1 RES1   0.0000
    69 C24      4.1143   7.3462   3.0318   C.2       1 RES1   0.0000
    70 H24      3.4963   7.7239   3.6149   H         1 RES1   0.0000
    71 C8       4.5177   5.1596   9.5133   C.2       1 RES1   0.0000
    72 H8       3.7206   5.6391   9.5197   H         1 RES1   0.0000
    73 C38     -0.0234   3.0522   2.6122   C.2       1 RES1   0.0000
    74 H38      0.2519   3.0610   1.7234   H         1 RES1   0.0000
    75 C37     -0.9672   2.1222   2.9754   C.2       1 RES1   0.0000
    76 H37     -1.3106   1.5317   2.3434   H         1 RES1   0.0000
    77 C21      9.8968   6.6157   4.6484   C.2       1 RES1   0.0000
    78 H21     10.0502   7.3530   4.1015   H         1 RES1   0.0000
    79 C30      7.6938   9.5277   2.0720   C.2       1 RES1   0.0000
    80 H30      6.9929   9.9890   2.4732   H         1 RES1   0.0000
    81 C9       5.2615   5.0739  10.6557   C.2       1 RES1   0.0000
    82 H9       4.9695   5.4817  11.4385   H         1 RES1   0.0000
    83 C31      8.8882  10.1708   1.8311   C.2       1 RES1   0.0000
    84 H31      8.9568  11.0662   2.0742   H         1 RES1   0.0000
    85 Cu1     -5.0399  -3.0143   6.4709   Cu        1 RES1   0.0000
    86 Cu1     12.4188   3.0143  12.3487   Cu        1 RES1   0.0000
    87 O3       1.3139   5.3906   1.1309   O.3       1 RES1   0.0000
    88 N4       0.9555   7.1450   3.7233   N.3       1 RES1   0.0000
    89 O100    14.6084   6.0649   8.1433   O.3       2 RES2   0.0000
    90 C76?    -2.7476  -0.0049   0.7189   C.3       3 RES3   0.0000
    91 S11?    -2.9781   0.7750  -0.8751   S.3       4 RES4   0.0000
    92 C75?    -3.7875  -0.5837  -1.7634   C.3       5 RES5   0.0000
    93 O7?     -2.2239  -0.2226  -0.7565   O.3       6 RES6   0.0000
@<TRIPOS>BOND
     1     1     3    1
     2     1    10    1
     3     1    11    1
     4     1    87    1
     5     1    88    1
     6     2    14    1
     7     2    86    1
     8     3    18    1
     9     4     5    1
    10     4    23    1
    11     6     7    1
    12     6    24    1
    13     8    14    2
    14     9    18    2
    15    10    53    1
    16    10    73    2
    17    11    51    2
    18    11    69    1
    19    12    39    2
    20    12    49    1
    21    12    85    1
    22    13    15    1
    23    13    32    2
    24    13    47    1
    25    14    16    1
    26    15    24    2
    27    15    26    1
    28    16    24    1
    29    16    41    2
    30    17    21    1
    31    17    30    1
    32    17    37    2
    33    18    19    1
    34    19    23    1
    35    19    35    2
    36    20    25    1
    37    20    33    2
    38    20    43    1
    39    21    22    1
    40    21    49    2
    41    23    25    2
    42    25    26    1
    43    26    27    1
    44    26    28    1
    45    29    34    1
    46    29    45    2
    47    29    79    1
    48    30    55    1
    49    30    75    2
    50    31    63    2
    51    31    83    1
    52    32    41    1
    53    32    59    1
    54    33    35    1
    55    33    71    1
    56    34    57    2
    57    34    67    1
    58    35    36    1
    59    37    38    1
    60    37    39    1
    61    39    40    1
    62    41    42    1
    63    43    44    1
    64    43    65    2
    65    45    46    1
    66    45    63    1
    67    47    48    1
    68    47    61    2
    69    49    50    1
    70    51    52    1
    71    51    57    1
    72    53    54    1
    73    53    55    2
    74    55    56    1
    75    57    58    1
    76    59    60    1
    77    59    77    2
    78    61    62    1
    79    61    77    1
    80    63    64    1
    81    65    66    1
    82    65    81    1
    83    67    68    1
    84    67    69    2
    85    69    70    1
    86    71    72    1
    87    71    81    2
    88    73    74    1
    89    73    75    1
    90    75    76    1
    91    77    78    1
    92    79    80    1
    93    79    83    2
    94    81    82    1
    95    83    84    1
@<TRIPOS>SUBSTRUCTURE
     1 RES1        1 GROUP             0 ****  ****    0  
     2 RES2       89 GROUP             0 ****  ****    0  
     3 RES3       90 GROUP             0 ****  ****    0  
     4 RES4       91 GROUP             0 ****  ****    0  
     5 RES5       92 GROUP             0 ****  ****    0  
     6 RES6       93 GROUP             0 ****  ****    0  
@<TRIPOS>CRYSIN
   13.3282   16.4897   19.7376   90.0000  107.5430   90.0000    14     1
