####################################################################### 
# 
# This file contains crystal structure data downloaded from the 
# Cambridge Structural Database (CSD) hosted by the Cambridge 
# Crystallographic Data Centre (CCDC).
# 
# Full information about CCDC data access policies and citation 
# guidelines are available at http://www.ccdc.cam.ac.uk/access/V1 
# 
# Audit and citation data items may have been added by the CCDC. 
# Please retain this information to preserve the provenance of 
# this file and to allow appropriate attribution of the data. 
# 
#######################################################################
@<TRIPOS>MOLECULE
DUDJAR
   126   138     4     0     0
SMALL
NO_CHARGES
****
Generated from the CSD

@<TRIPOS>ATOM
     1 Zn1     -0.7517  18.3129  15.6951   Zn        1 RES1   0.0000
     2 Ca1      0.0000  21.2832  17.5135   Ca        1 RES1   0.0000
     3 O1      -1.1253  18.8468  17.5831   O.3       1 RES1   0.0000
     4 O2       0.9409  19.8429  15.8648   O.co2     1 RES1   0.0000
     5 O3       2.9067  20.3680  14.8525   O.co2     1 RES1   0.0000
     6 O4      -1.5473  16.3631  15.5301   O.3       1 RES1   0.0000
     7 O5      -2.7325  11.4722  14.4671   O.co2     1 RES1   0.0000
     8 O6       1.4156  15.5570  13.7518   O.2       1 RES1   0.0000
     9 O7      -0.9511  12.0740  13.3865   O.co2     1 RES1   0.0000
    10 N1      -0.9474  14.4811  14.3163   N.2       1 RES1   0.0000
    11 N2       0.6958  17.5634  14.6416   N.am      1 RES1   0.0000
    12 C1       1.8395  19.5539  15.0493   C.2       1 RES1   0.0000
    13 C2       1.8773  18.2275  14.3304   C.3       1 RES1   0.0000
    14 H2A      2.1460  18.2387  13.3752   H         1 RES1   0.0000
    15 C3      -2.1427  13.6271  14.6722   C.3       1 RES1   0.0000
    16 H3A     -2.2218  13.5843  15.6568   H         1 RES1   0.0000
    17 C4      -1.9510  12.2639  14.1537   C.2       1 RES1   0.0000
    18 C5       0.5760  16.2417  14.3658   C.2       1 RES1   0.0000
    19 C6      -0.7428  15.6400  14.8372   C.2       1 RES1   0.0000
    20 C1S      2.6265  17.2554  15.2614   C.3       1 RES1   0.0000
    21 H1SA     2.5695  17.5619  16.1874   H         1 RES1   0.0000
    22 H1SB     2.2230  16.3613  15.2103   H         1 RES1   0.0000
    23 S1       5.2346  16.7286  13.3994   S.3       1 RES1   0.0000
    24 S2      -3.7785  15.3878  15.6268   S.3       1 RES1   0.0000
    25 C2S      4.0919  17.1436  14.8608   C.3       1 RES1   0.0000
    26 H2SA     4.4447  16.5459  15.5547   H         1 RES1   0.0000
    27 H2SB     4.4284  18.0349  15.1219   H         1 RES1   0.0000
    28 C3S      4.6356  15.1164  12.6098   C.3       1 RES1   0.0000
    29 C4S     -3.4007  14.3183  14.0947   C.3       1 RES1   0.0000
    30 H4SA    -4.1216  13.6781  13.8988   H         1 RES1   0.0000
    31 H4SB    -3.2087  14.8571  13.3038   H         1 RES1   0.0000
    32 C5S     -3.2163  16.3934  17.1352   C.3       1 RES1   0.0000
    33 Zn2     -0.6332  18.3090  19.3414   Zn        1 RES1   0.0000
    34 Zn1      2.9483  22.1174  15.6951   Zn        1 RES1   0.0000
    35 O1       2.6726  21.5269  17.5831   O.3       1 RES1   0.0000
    36 O2       0.7769  22.8183  15.8648   O.co2     1 RES1   0.0000
    37 O3      -0.6608  24.2581  14.8525   O.co2     1 RES1   0.0000
    38 O4       5.0346  22.4032  15.5301   O.3       1 RES1   0.0000
    39 O5       9.8629  23.8223  14.4671   O.co2     1 RES1   0.0000
    40 O6       4.2513  25.3722  13.7518   O.2       1 RES1   0.0000
    41 O7       8.4510  25.0642  13.3865   O.co2     1 RES1   0.0000
    42 N1       6.3645  23.8638  14.3163   N.2       1 RES1   0.0000
    43 N2       2.8735  23.7457  14.6416   N.am      1 RES1   0.0000
    44 C1       0.5778  23.7409  15.0493   C.2       1 RES1   0.0000
    45 C2       1.7077  24.4368  14.3304   C.3       1 RES1   0.0000
    46 H2A      1.5637  24.6639  13.3752   H         1 RES1   0.0000
    47 C3       7.7017  23.2556  14.6722   C.3       1 RES1   0.0000
    48 H3A      7.7783  23.2085  15.6568   H         1 RES1   0.0000
    49 C4       8.7864  24.1032  14.1537   C.2       1 RES1   0.0000
    50 C5       4.0780  24.3028  14.3658   C.2       1 RES1   0.0000
    51 C6       5.2586  23.4615  14.8372   C.2       1 RES1   0.0000
    52 C1S      2.1750  25.5718  15.2614   C.3       1 RES1   0.0000
    53 H1SA     1.9380  25.3691  16.1874   H         1 RES1   0.0000
    54 H1SB     3.1510  25.6693  15.2103   H         1 RES1   0.0000
    55 S1       1.3271  28.0938  13.3994   S.3       1 RES1   0.0000
    56 S2       6.9949  20.9586  15.6268   S.3       1 RES1   0.0000
    57 C2S      1.5391  26.8967  14.8608   C.3       1 RES1   0.0000
    58 H2SA     1.8802  27.5011  15.5547   H         1 RES1   0.0000
    59 H2SB     0.5989  26.7425  15.1219   H         1 RES1   0.0000
    60 C3S      3.0228  28.3812  12.6098   C.3       1 RES1   0.0000
    61 C4S      7.7321  21.8206  14.0947   C.3       1 RES1   0.0000
    62 H4SA     8.6471  21.5164  13.8988   H         1 RES1   0.0000
    63 H4SB     7.1695  21.7175  13.3038   H         1 RES1   0.0000
    64 C5S      5.8429  20.9427  17.1352   C.3       1 RES1   0.0000
    65 Zn2      2.8923  22.2219  19.3414   Zn        1 RES1   0.0000
    66 Zn1     -2.1965  23.4194  15.6951   Zn        1 RES1   0.0000
    67 O1      -1.5473  23.4759  17.5831   O.3       1 RES1   0.0000
    68 O2      -1.7178  21.1885  15.8648   O.co2     1 RES1   0.0000
    69 O3      -2.2459  19.2235  14.8525   O.co2     1 RES1   0.0000
    70 O4      -3.4873  25.0833  15.5301   O.3       1 RES1   0.0000
    71 O5      -7.1303  28.5551  14.4671   O.co2     1 RES1   0.0000
    72 O6      -5.6669  22.9204  13.7518   O.2       1 RES1   0.0000
    73 O7      -7.4999  26.7115  13.3865   O.co2     1 RES1   0.0000
    74 N1      -5.4171  25.5047  14.3163   N.2       1 RES1   0.0000
    75 N2      -3.5693  22.5405  14.6416   N.am      1 RES1   0.0000
    76 C1      -2.4173  20.5548  15.0493   C.2       1 RES1   0.0000
    77 C2      -3.5850  21.1853  14.3304   C.3       1 RES1   0.0000
    78 H2A     -3.7096  20.9470  13.3752   H         1 RES1   0.0000
    79 C3      -5.5590  26.9669  14.6722   C.3       1 RES1   0.0000
    80 H3A     -5.5565  27.0567  15.6568   H         1 RES1   0.0000
    81 C4      -6.8354  27.4825  14.1537   C.2       1 RES1   0.0000
    82 C5      -4.6540  23.3051  14.3658   C.2       1 RES1   0.0000
    83 C6      -4.5158  24.7481  14.8372   C.2       1 RES1   0.0000
    84 C1S     -4.8015  21.0225  15.2614   C.3       1 RES1   0.0000
    85 H1SA    -4.5075  20.9186  16.1874   H         1 RES1   0.0000
    86 H1SB    -5.3740  21.8190  15.2103   H         1 RES1   0.0000
    87 S1      -6.5617  19.0272  13.3994   S.3       1 RES1   0.0000
    88 S2      -3.2163  27.5032  15.6268   S.3       1 RES1   0.0000
    89 C2S     -5.6309  19.8093  14.8608   C.3       1 RES1   0.0000
    90 H2SA    -6.3249  19.8026  15.5547   H         1 RES1   0.0000
    91 H2SB    -5.0273  19.0722  15.1219   H         1 RES1   0.0000
    92 C3S     -7.6584  20.3521  12.6098   C.3       1 RES1   0.0000
    93 C4S     -4.3315  27.7107  14.0947   C.3       1 RES1   0.0000
    94 H4SA    -4.5254  28.6552  13.8988   H         1 RES1   0.0000
    95 H4SB    -3.9608  27.2750  13.3038   H         1 RES1   0.0000
    96 C5S     -2.6265  26.5136  17.1352   C.3       1 RES1   0.0000
    97 Zn2     -2.2591  23.3187  19.3414   Zn        1 RES1   0.0000
    98 Ca1      0.0000  10.6416  11.6211   Ca        1 RES1   0.0000
    99 Ca1     -9.2159  26.6040  11.6211   Ca        1 RES1   0.0000
   100 Ca1      9.2159  26.6040  11.6211   Ca        1 RES1   0.0000
   101 O5       2.7325  20.4526  20.3596   O.3       1 RES1   0.0000
   102 O5      -0.6470  24.0649  20.3596   O.3       1 RES1   0.0000
   103 O5      -2.0856  19.3321  20.3596   O.3       1 RES1   0.0000
   104 O6      -1.4156  16.3679  19.6442   O.3       1 RES1   0.0000
   105 O6       4.9646  22.5150  19.6442   O.3       1 RES1   0.0000
   106 O6      -3.5490  24.9668  19.6442   O.3       1 RES1   0.0000
   107 O7       0.9511  19.8508  19.2789   O.3       1 RES1   0.0000
   108 O7       0.7649  22.8230  19.2789   O.3       1 RES1   0.0000
   109 O7      -1.7160  21.1757  19.2789   O.3       1 RES1   0.0000
   110 N1       0.9474  17.4437  20.2087   N.3       1 RES1   0.0000
   111 N1       2.8514  24.0234  20.2087   N.3       1 RES1   0.0000
   112 N1      -3.7988  22.3825  20.2087   N.3       1 RES1   0.0000
   113 Zn2      0.6332  13.6158  13.4489   Zn        1 RES1   0.0000
   114 Zn2     -8.5827  29.5782  13.4489   Zn        1 RES1   0.0000
   115 Zn2     -2.8923   9.7029  13.4489   Zn        1 RES1   0.0000
   116 Zn2      6.3236  25.6653  13.4489   Zn        1 RES1   0.0000
   117 Zn2     -6.9568  24.5685  13.4489   Zn        1 RES1   0.0000
   118 Zn2     11.4750  24.5685  13.4489   Zn        1 RES1   0.0000
   119 O1W      4.5868  12.0436  12.0065   O.3       2 RES2   0.0000
   120 O2W      7.2068   5.6826  -0.2711   O.3       3 RES3   0.0000
   121 H5SA?   -3.9940  16.7459  17.5990   H         4 RES4   0.0000
   122 H5SB?   -2.7054  15.8343  17.7313   H         4 RES4   0.0000
   123 H5SC?   -2.6641  17.1385  16.8334   H         4 RES4   0.0000
   124 H3SC?    3.7226  15.2242  12.3053   H         4 RES4   0.0000
   125 H3SA?    5.2081  14.8997  11.8614   H         4 RES4   0.0000
   126 H3SB?    4.6771  14.4074  13.2701   H         4 RES4   0.0000
@<TRIPOS>BOND
     1     1     3    1
     2     1     4    1
     3     1     6    1
     4     1    11    1
     5     1    69    1
     6     2     3    1
     7     2     4    1
     8     2    35    1
     9     2    36    1
    10     2    67    1
    11     2    68    1
    12     2   107    1
    13     2   108    1
    14     2   109    1
    15     3    33    1
    16     4    12   un
    17     5    12   un
    18     5    34    1
    19     6    19    1
    20     7    17   un
    21     7   115    1
    22     8    18    2
    23     8   113    1
    24     9    17   un
    25     9    98    1
    26     9   113    1
    27    10    15    1
    28    10    19    2
    29    10   113    1
    30    11    13    1
    31    11    18   am
    32    12    13    1
    33    13    14    1
    34    13    20    1
    35    15    16    1
    36    15    17    1
    37    15    29    1
    38    18    19    1
    39    20    21    1
    40    20    22    1
    41    20    25    1
    42    23    25    1
    43    23    28    1
    44    24    29    1
    45    24    32    1
    46    25    26    1
    47    25    27    1
    48    29    30    1
    49    29    31    1
    50    33   103    1
    51    33   104    1
    52    33   107    1
    53    33   110    1
    54    34    35    1
    55    34    36    1
    56    34    38    1
    57    34    43    1
    58    35    65    1
    59    36    44   un
    60    37    44   un
    61    37    66    1
    62    38    51    1
    63    39    49   un
    64    39   118    1
    65    40    50    2
    66    40   116    1
    67    41    49   un
    68    41   100    1
    69    41   116    1
    70    42    47    1
    71    42    51    2
    72    42   116    1
    73    43    45    1
    74    43    50   am
    75    44    45    1
    76    45    46    1
    77    45    52    1
    78    47    48    1
    79    47    49    1
    80    47    61    1
    81    50    51    1
    82    52    53    1
    83    52    54    1
    84    52    57    1
    85    55    57    1
    86    55    60    1
    87    56    61    1
    88    56    64    1
    89    57    58    1
    90    57    59    1
    91    61    62    1
    92    61    63    1
    93    65   101    1
    94    65   105    1
    95    65   108    1
    96    65   111    1
    97    66    67    1
    98    66    68    1
    99    66    70    1
   100    66    75    1
   101    67    97    1
   102    68    76   un
   103    69    76   un
   104    70    83    1
   105    71    81   un
   106    71   114    1
   107    72    82    2
   108    72   117    1
   109    73    81   un
   110    73    99    1
   111    73   117    1
   112    74    79    1
   113    74    83    2
   114    74   117    1
   115    75    77    1
   116    75    82   am
   117    76    77    1
   118    77    78    1
   119    77    84    1
   120    79    80    1
   121    79    81    1
   122    79    93    1
   123    82    83    1
   124    84    85    1
   125    84    86    1
   126    84    89    1
   127    87    89    1
   128    87    92    1
   129    88    93    1
   130    88    96    1
   131    89    90    1
   132    89    91    1
   133    93    94    1
   134    93    95    1
   135    97   102    1
   136    97   106    1
   137    97   109    1
   138    97   112    1
@<TRIPOS>SUBSTRUCTURE
     1 RES1        1 GROUP             0 ****  ****    0  
     2 RES2      119 GROUP             0 ****  ****    0  
     3 RES3      120 GROUP             0 ****  ****    0  
     4 RES4      121 GROUP             0 ****  ****    0  
@<TRIPOS>CRYSIN
   18.4318   18.4318   11.7849   90.0000   90.0000  120.0000   173     1
