####################################################################### 
# 
# This file contains crystal structure data downloaded from the 
# Cambridge Structural Database (CSD) hosted by the Cambridge 
# Crystallographic Data Centre (CCDC).
# 
# Full information about CCDC data access policies and citation 
# guidelines are available at http://www.ccdc.cam.ac.uk/access/V1 
# 
# Audit and citation data items may have been added by the CCDC. 
# Please retain this information to preserve the provenance of 
# this file and to allow appropriate attribution of the data. 
# 
#######################################################################
@<TRIPOS>MOLECULE
QOMCUS
    52    56     2     0     0
SMALL
NO_CHARGES
****
Generated from the CSD

@<TRIPOS>ATOM
     1 Pb1     13.9255   7.6165  27.6992   Pb        1 RES1   0.0000
     2 C3      16.2508   0.0899  19.0484   C.2       1 RES1   0.0000
     3 H3      17.1554   0.2712  18.9451   H         1 RES1   0.0000
     4 C6      13.5214  -0.3946  19.2297   C.2       1 RES1   0.0000
     5 C14     12.5634   4.5499  24.8852   C.2       1 RES1   0.0000
     6 C17     12.9893   5.5438  25.9295   C.2       1 RES1   0.0000
     7 C11     11.8358   2.6820  22.9296   C.2       1 RES1   0.0000
     8 C16     11.1389   2.8618  24.1576   C.2       1 RES1   0.0000
     9 H16     10.3942   2.3289  24.3160   H         1 RES1   0.0000
    10 C8      12.1280   1.1187  21.0498   C.2       1 RES1   0.0000
    11 C13     13.2654   4.4800  23.6687   C.2       1 RES1   0.0000
    12 H13     13.9729   5.0598  23.5057   H         1 RES1   0.0000
    13 C15     11.4831   3.7358  25.0826   C.2       1 RES1   0.0000
    14 H15     10.9904   3.7987  25.8699   H         1 RES1   0.0000
    15 C7      11.5173   0.1448  20.1455   C.2       1 RES1   0.0000
    16 C12     12.9059   3.5610  22.7299   C.2       1 RES1   0.0000
    17 H12     13.3847   3.5141  21.9358   H         1 RES1   0.0000
    18 C5      14.1493   0.6393  20.0514   C.2       1 RES1   0.0000
    19 C9       9.2670  -0.8590  19.4707   C.2       1 RES1   0.0000
    20 C1      14.2786  -1.1637  18.4217   C.2       1 RES1   0.0000
    21 H1      13.8829  -1.8384  17.9214   H         1 RES1   0.0000
    22 C2      15.6762  -0.9389  18.3368   C.2       1 RES1   0.0000
    23 H2      16.2053  -1.4818  17.7997   H         1 RES1   0.0000
    24 C4      15.4933   0.8490  19.9183   C.2       1 RES1   0.0000
    25 H4      15.9053   1.5123  20.4232   H         1 RES1   0.0000
    26 C10      9.7073  -1.8379  18.6444   C.2       1 RES1   0.0000
    27 H10     10.6214  -1.9908  18.5503   H         1 RES1   0.0000
    28 N1      12.1876  -0.5794  19.3261   N.2       1 RES1   0.0000
    29 N2      13.3988   1.3585  20.9351   N.2       1 RES1   0.0000
    30 N4      10.0916   0.0340  20.1983   N.pl3     1 RES1   0.0000
    31 H4A      9.6884   0.5709  20.7354   H         1 RES1   0.0000
    32 N3      11.3682   1.7830  22.0207   N.pl3     1 RES1   0.0000
    33 H3A     10.5265   1.6027  22.0460   H         1 RES1   0.0000
    34 C19      7.4429  -2.4223  18.0821   C.2       1 RES1   0.0000
    35 C21      7.8958  -0.6493  19.6428   C.2       1 RES1   0.0000
    36 H21      7.5880   0.0195  20.2098   H         1 RES1   0.0000
    37 C18      8.8024  -2.6071  17.9420   C.2       1 RES1   0.0000
    38 H18      9.1154  -3.2668  17.3659   H         1 RES1   0.0000
    39 C20      7.0143  -1.4434  18.9565   C.2       1 RES1   0.0000
    40 H20      6.1027  -1.3220  19.0874   H         1 RES1   0.0000
    41 O1      14.0755   6.2715  25.7161   O.co2     1 RES1   0.0000
    42 O2      12.3391   5.6806  26.9945   O.co2     1 RES1   0.0000
    43 C22      6.4637  -3.2913  17.3889   C.2       1 RES1   0.0000
    44 O4       5.2368  -3.1215  17.5243   O.co2     1 RES1   0.0000
    45 O3       6.9070  -4.1993  16.5534   O.co2     1 RES1   0.0000
    46 O5      15.7126   8.8651  26.1017   O.3       1 RES1   0.0000
    47 Pb1     11.4366   5.1193  29.6823   Pb        1 RES1   0.0000
    48 Pb1      4.6579  -5.1193  16.2229   Pb        1 RES1   0.0000
    49 O2      13.0230   8.1778  30.3869   O.3       1 RES1   0.0000
    50 O4      14.5045   5.6187  29.0006   O.3       1 RES1   0.0000
    51 O3      16.1746   6.6965  28.0297   O.3       1 RES1   0.0000
    52 Pb2?    13.9402   7.5550  27.6395   Pb        2 RES2   0.0000
@<TRIPOS>BOND
     1     1    41    1
     2     1    42    1
     3     1    46    1
     4     1    49    1
     5     1    50    1
     6     1    51    1
     7     2     3    1
     8     2    22    2
     9     2    24    1
    10     4    18    1
    11     4    20    2
    12     4    28    1
    13     5     6    1
    14     5    11    2
    15     5    13    1
    16     6    41   un
    17     6    42   un
    18     7     8    1
    19     7    16    2
    20     7    32    1
    21     8     9    1
    22     8    13    2
    23    10    15    1
    24    10    29    2
    25    10    32    1
    26    11    12    1
    27    11    16    1
    28    13    14    1
    29    15    28    2
    30    15    30    1
    31    16    17    1
    32    18    24    2
    33    18    29    1
    34    19    26    2
    35    19    30    1
    36    19    35    1
    37    20    21    1
    38    20    22    1
    39    22    23    1
    40    24    25    1
    41    26    27    1
    42    26    37    1
    43    30    31    1
    44    32    33    1
    45    34    37    2
    46    34    39    1
    47    34    43    1
    48    35    36    1
    49    35    39    2
    50    37    38    1
    51    39    40    1
    52    42    47    1
    53    43    44   un
    54    43    45   un
    55    44    48    1
    56    45    48    1
@<TRIPOS>SUBSTRUCTURE
     1 RES1        1 GROUP             0 ****  ****    0  
     2 RES2       52 GROUP             0 ****  ****    0  
@<TRIPOS>CRYSIN
   20.9760    4.9944   23.0820   90.0000   96.0700   90.0000   231     1
