####################################################################### 
# 
# This file contains crystal structure data downloaded from the 
# Cambridge Structural Database (CSD) hosted by the Cambridge 
# Crystallographic Data Centre (CCDC).
# 
# Full information about CCDC data access policies and citation 
# guidelines are available at http://www.ccdc.cam.ac.uk/access/V1 
# 
# Audit and citation data items may have been added by the CCDC. 
# Please retain this information to preserve the provenance of 
# this file and to allow appropriate attribution of the data. 
# 
#######################################################################
@<TRIPOS>MOLECULE
QOLWIZ
    49    53     1     0     0
SMALL
USER_CHARGES
****
Generated from the CSD

@<TRIPOS>ATOM
     1 C30      5.4411   9.0993  16.9099   C.2       1 RES1   0.0000
     2 C21      6.5776   9.4193  16.1748   C.2       1 RES1   0.0000
     3 H21      7.3809   9.5885  16.6134   H         1 RES1   0.0000
     4 C22      6.5147   9.4818  14.7881   C.2       1 RES1   0.0000
     5 H22      7.2748   9.6928  14.2981   H         1 RES1   0.0000
     6 C17      5.3147   9.2252  14.1348   C.2       1 RES1   0.0000
     7 C18      4.1776   8.9069  14.8698   C.2       1 RES1   0.0000
     8 H18      3.3749   8.7354  14.4313   H         1 RES1   0.0000
     9 C20      4.2411   8.8443  16.2565   C.2       1 RES1   0.0000
    10 H20      3.4803   8.6310  16.7465   H         1 RES1   0.0000
    11 C1       5.0364   4.6656  11.9189   C.2       1 RES1   0.0000
    12 H1       5.1972   4.5207  12.8244   H         1 RES1   0.0000
    13 C2       4.8445   3.5864  11.0649   C.2       1 RES1   0.0000
    14 H2       4.8769   2.7194  11.3969   H         1 RES1   0.0000
    15 C3       4.6039   3.8043   9.7138   C.2       1 RES1   0.0000
    16 H3       4.4749   3.0833   9.1420   H         1 RES1   0.0000
    17 C4       4.5553   5.1026   9.2166   C.2       1 RES1   0.0000
    18 H4       4.3938   5.2463   8.3129   H         1 RES1   0.0000
    19 C5       4.7472   6.1806  10.0706   C.2       1 RES1   0.0000
    20 C6       4.9877   5.9627  11.4236   C.2       1 RES1   0.0000
    21 Zn1      5.0783  11.2127  11.6634   Zn        1 RES1   1.0000
    22 C8       5.1033   8.3088  11.9331   C.2       1 RES1   0.0000
    23 N4       5.2837   9.3845  12.6629   N.2       1 RES1   0.0000
    24 C24      3.4580  11.3342   4.8755   C.2       1 RES1   0.0000
    25 O1       6.5667   9.1225  18.9215   O.co2     1 RES1  -1.0000
    26 O5       4.5958  12.7924  10.3938   O.3       1 RES1   0.0000
    27 C15      3.8391  10.9586   6.1965   C.2       1 RES1   0.0000
    28 C16      5.1479  10.6225   6.5232   C.2       1 RES1   0.0000
    29 H16      5.8120  10.6549   5.8716   H         1 RES1   0.0000
    30 C12      5.4641  10.2353   7.8193   C.2       1 RES1   0.0000
    31 H12      6.3397  10.0127   8.0377   H         1 RES1   0.0000
    32 C11      4.4708  10.1866   8.7905   C.2       1 RES1   0.0000
    33 C13      3.1621  10.5228   8.4656   C.2       1 RES1   0.0000
    34 H13      2.4979  10.4903   9.1154   H         1 RES1   0.0000
    35 C14      2.8459  10.9076   7.1677   C.2       1 RES1   0.0000
    36 H14      1.9702  11.1325   6.9493   H         1 RES1   0.0000
    37 O6       2.3067  11.1047   4.5080   O.co2     1 RES1   0.0000
    38 N1       5.1147   7.0314  12.3184   N.pl3     1 RES1   0.0000
    39 H1A      5.2046   6.8575  13.1547   H         1 RES1   0.0000
    40 C9       4.8154   8.5545  10.4453   C.2       1 RES1   0.0000
    41 O2       4.3844   8.9231  19.0103   O.co2     1 RES1   0.0000
    42 O3       4.2708  11.9253   4.0588   O.co2     1 RES1   0.0000
    43 N2       4.6546   7.5298   9.7084   N.pl3     1 RES1   0.0000
    44 H2A      4.4654   7.6852   8.8828   H         1 RES1   0.0000
    45 O4       7.0188  11.7746  11.6313   O.3       1 RES1   0.0000
    46 C23      5.4188   9.1109  18.3924   C.2       1 RES1   0.0000
    47 N3       4.7181   9.8365  10.1417   N.2       1 RES1   0.0000
    48 Zn1      1.6783  11.9703   2.7859   Zn        1 RES1   0.0000
    49 O6       4.4499  12.0783  13.3855   O.3       1 RES1   0.0000
@<TRIPOS>BOND
     1     1     2    1
     2     1     9    2
     3     1    46    1
     4     2     3    1
     5     2     4    2
     6     4     5    1
     7     4     6    1
     8     6     7    2
     9     6    23    1
    10     7     8    1
    11     7     9    1
    12     9    10    1
    13    11    12    1
    14    11    13    1
    15    11    20    2
    16    13    14    1
    17    13    15    2
    18    15    16    1
    19    15    17    1
    20    17    18    1
    21    17    19    2
    22    19    20    1
    23    19    43    1
    24    20    38    1
    25    21    23    1
    26    21    26    1
    27    21    45    1
    28    21    47    1
    29    21    49    1
    30    22    23    2
    31    22    38    1
    32    22    40    1
    33    24    27    1
    34    24    37    1
    35    24    42    2
    36    25    46    1
    37    27    28    1
    38    27    35    2
    39    28    29    1
    40    28    30    2
    41    30    31    1
    42    30    32    1
    43    32    33    2
    44    32    47    1
    45    33    34    1
    46    33    35    1
    47    35    36    1
    48    37    48    1
    49    38    39    1
    50    40    43    1
    51    40    47    2
    52    41    46    2
    53    43    44    1
@<TRIPOS>SUBSTRUCTURE
     1 RES1        1 GROUP             0 ****  ****    0  
@<TRIPOS>CRYSIN
    6.7566   23.1830   17.7550   90.0000   90.0000   90.0000    33     1
