####################################################################### 
# 
# This file contains crystal structure data downloaded from the 
# Cambridge Structural Database (CSD) hosted by the Cambridge 
# Crystallographic Data Centre (CCDC).
# 
# Full information about CCDC data access policies and citation 
# guidelines are available at http://www.ccdc.cam.ac.uk/access/V1 
# 
# Audit and citation data items may have been added by the CCDC. 
# Please retain this information to preserve the provenance of 
# this file and to allow appropriate attribution of the data. 
# 
#######################################################################
@<TRIPOS>MOLECULE
QOMDAZ
    69    83     2     0     0
SMALL
USER_CHARGES
****
Generated from the CSD

@<TRIPOS>ATOM
     1 Cu2      0.5635   4.8763  -1.5308   Cu        1 RES1   0.0000
     2 O1       0.6448   5.5087   2.4150   O.co2     1 RES1  -1.0000
     3 O2       1.4966   5.6530   0.4243   O.co2     1 RES1   0.0000
     4 C1       1.6066   5.3073   1.6288   C.2       1 RES1   0.0000
     5 N1       6.6043   4.1006   4.0003   N.2       1 RES1   0.0000
     6 C2       2.9474   4.7999   2.0813   C.3       1 RES1   0.0000
     7 C3       4.1455   4.7875   1.3410   C.2       1 RES1   0.0000
     8 H3       4.1297   4.9466   0.4243   H         1 RES1   0.0000
     9 C4       5.3332   4.5462   1.9784   C.2       1 RES1   0.0000
    10 H4       6.1302   4.5786   1.5014   H         1 RES1   0.0000
    11 C5       5.3483   4.2478   3.3433   C.2       1 RES1   0.0000
    12 C6       4.1675   4.2080   4.0315   C.2       1 RES1   0.0000
    13 H6       4.1712   3.9891   4.9347   H         1 RES1   0.0000
    14 C7       2.9827   4.4890   3.4118   C.2       1 RES1   0.0000
    15 H7       2.1908   4.4691   3.9005   H         1 RES1   0.0000
    16 C8       7.0989   2.9347   4.2525   C.2       1 RES1   0.0000
    17 N9       6.5364   1.7454   3.9488   N.pl3     1 RES1   1.0000
    18 H9       5.7752   1.7359   3.5484   H         1 RES1   0.0000
    19 C10      7.1494   0.5198   4.2642   C.2       1 RES1   0.0000
    20 C11      6.5267  -0.6790   3.9237   C.2       1 RES1   0.0000
    21 H11      5.7100  -0.6790   3.4792   H         1 RES1   0.0000
    22 C12      7.1565  -1.8827   4.2654   C.2       1 RES1   0.0000
    23 H12      6.7529  -2.6909   4.0431   H         1 RES1   0.0000
    24 O1W      0.5635   7.1780  -1.5308   O.3       1 RES1   0.0000
    25 Cu1     -0.6836   6.8345   1.9092   Cu        1 RES1   0.0000
    26 O4      14.8631   5.5087   6.7698   O.co2     1 RES1  -1.0000
    27 O5      14.0113   5.6530   8.7604   O.co2     1 RES1   0.0000
    28 C13     13.9012   5.3073   7.5560   C.2       1 RES1   0.0000
    29 N3       8.9035   4.1006   5.1845   N.2       1 RES1   0.0000
    30 C15     12.5604   4.7999   7.1035   C.3       1 RES1   0.0000
    31 C16     11.3624   4.7875   7.8438   C.2       1 RES1   0.0000
    32 H8      11.3781   4.9466   8.7604   H         1 RES1   0.0000
    33 C17     10.1747   4.5462   7.2064   C.2       1 RES1   0.0000
    34 H10      9.3776   4.5786   7.6834   H         1 RES1   0.0000
    35 C18     10.1595   4.2478   5.8415   C.2       1 RES1   0.0000
    36 C19     11.3404   4.2080   5.1533   C.2       1 RES1   0.0000
    37 H13     11.3366   3.9891   4.2501   H         1 RES1   0.0000
    38 C20     12.5251   4.4890   5.7729   C.2       1 RES1   0.0000
    39 H14     13.3170   4.4691   5.2843   H         1 RES1   0.0000
    40 C21      8.4089   2.9347   4.9322   C.2       1 RES1   0.0000
    41 N4       8.9715   1.7454   5.2359   N.pl3     1 RES1   1.0000
    42 H15      9.7326   1.7359   5.6364   H         1 RES1   0.0000
    43 C22      8.3584   0.5198   4.9206   C.2       1 RES1   0.0000
    44 C23      8.9811  -0.6790   5.2610   C.2       1 RES1   0.0000
    45 H16      9.7978  -0.6790   5.7056   H         1 RES1   0.0000
    46 C24      8.3513  -1.8827   4.9194   C.2       1 RES1   0.0000
    47 H17      8.7550  -2.6909   5.1416   H         1 RES1   0.0000
    48 Cu3     -0.4435   6.8345   1.1524   Cu        1 RES1   0.0000
    49 Cu4     14.9443   4.8763  10.7156   Cu        1 RES1   0.0000
    50 O6      -1.7718   5.5087   0.6466   O.3       1 RES1  -1.0000
    51 O7      -0.3695   5.6530  -3.4859   O.3       1 RES1   0.0000
    52 O8      -2.6236   5.6530   2.6373   O.3       1 RES1   0.0000
    53 N5       0.5861   8.3344   2.1229   N.2       1 RES1   0.0000
    54 N6      -1.7131   8.3344   0.9387   N.2       1 RES1   0.0000
    55 Cu5     15.9513   6.8345   8.0324   Cu        1 RES1   0.0000
    56 Cu6     16.1914   6.8345   7.2756   Cu        1 RES1   0.0000
    57 Cu7      7.8740   5.6005   4.2140   Cu        1 RES1   0.0000
    58 Cu8      7.6339   5.6005   4.9708   Cu        1 RES1   0.0000
    59 O1B      0.9127   5.4938   1.6716   O.co2     1 RES1   0.0000
    60 O2B      2.0314   4.9342  -0.1972   O.co2     1 RES1   0.0000
    61 C1B      1.9128   5.0909   1.0434   C.2       1 RES1   0.0000
    62 O2A      1.8783   3.3525  -2.4187   O.3       1 RES1   0.0000
    63 O9      14.5951   5.4938   7.5131   O.co2     1 RES1   0.0000
    64 O10     13.4765   4.9342   9.3819   O.co2     1 RES1   0.0000
    65 C14     13.5950   5.0909   8.1414   C.2       1 RES1   0.0000
    66 O11     -0.7512   3.3525  -0.6429   O.3       1 RES1   0.0000
    67 O15     -2.0398   5.4938   1.3900   O.3       1 RES1   0.0000
    68 O16     -0.9043   4.9342  -2.8644   O.3       1 RES1   0.0000
    69 O2W      4.2535   1.1987   2.4125   O.3       2 RES2   0.0000
@<TRIPOS>BOND
     1     1     3    1
     2     1    24    1
     3     1    51    1
     4     2     4   un
     5     2    25    1
     6     2    48    1
     7     3     4   un
     8     3    48    1
     9     4     6    1
    10     5    11    1
    11     5    16    1
    12     5    57    1
    13     5    58    1
    14     6     7    1
    15     6    14    1
    16     7     8    1
    17     7     9    2
    18     9    10    1
    19     9    11    1
    20    11    12    2
    21    12    13    1
    22    12    14    1
    23    14    15    1
    24    16    17    1
    25    16    40    2
    26    17    18    1
    27    17    19    1
    28    19    20    2
    29    19    43    1
    30    20    21    1
    31    20    22    1
    32    22    23    1
    33    22    46    2
    34    25    48    1
    35    25    50    1
    36    25    52    1
    37    25    53    1
    38    25    54    1
    39    26    28   un
    40    26    55    1
    41    26    56    1
    42    27    28   un
    43    27    49    1
    44    27    55    1
    45    28    30    1
    46    29    35    1
    47    29    40    1
    48    29    57    1
    49    29    58    1
    50    30    31    1
    51    30    38    1
    52    31    32    1
    53    31    33    2
    54    33    34    1
    55    33    35    1
    56    35    36    2
    57    36    37    1
    58    36    38    1
    59    38    39    1
    60    40    41    1
    61    41    42    1
    62    41    43    1
    63    43    44    2
    64    44    45    1
    65    44    46    1
    66    46    47    1
    67    48    50    1
    68    48    53    1
    69    48    54    1
    70    55    56    1
    71    57    58    1
    72    25    59    1
    73    25    67    1
    74     1    60    1
    75     1    62    1
    76     1    66    1
    77     1    68    1
    78    59    61    2
    79    60    61    1
    80    61     6    1
    81    63    65    2
    82    64    65    1
    83    65    30    1
@<TRIPOS>SUBSTRUCTURE
     1 RES1        1 GROUP             0 ****  ****    0  
     2 RES2       69 GROUP             0 ****  ****    0  
@<TRIPOS>CRYSIN
   18.8890   24.8700    6.5249   90.0000  110.2100   90.0000    15     1
